Global frequency set at 1000000000000 ticks per second
warn: No dot file generated. Please install pydot to generate the dot file and pdf.
src/mem/dram_interface.cc:690: warn: DRAM device capacity (8192 Mbytes) does not match the address range assigned (16384 Mbytes)
src/base/statistics.hh:279: warn: One of the stats is a legacy stat. Legacy stat is a stat that does not belong to any statistics::Group. Legacy stat is deprecated.
system.remote_gdb: Listening for connections on port 7001
gem5 Simulator System.  https://www.gem5.org
gem5 is copyrighted software; use the --copyright option for details.

gem5 version 23.0.1.0
gem5 compiled Dec 12 2023 22:07:27
gem5 started Dec 12 2023 22:15:31
gem5 executing on advos, pid 271376
command line: build/X86/gem5.opt configs/tutorial/syscall_emulation/codeflows.py

Beginning simulation!
src/sim/simulate.cc:194: info: Entering event queue @ 0.  Starting simulation...
src/arch/x86/faults.cc:177: warn: Looking up address for 0x7ffff7ffd008
src/arch/x86/faults.cc:184: warn: Adding to CR2 address 0x48000
src/arch/x86/tlb.cc:424: warn: TLB Message - Read the value from CR2: 0x48000
src/arch/x86/tlb.cc:505: warn: TLB Message - Resetting CR2 back to 0x0
.
src/sim/mem_state.cc:443: info: Increasing stack size by one page.
src/arch/x86/faults.cc:177: warn: Looking up address for 0x7fffffffdfac
src/arch/x86/faults.cc:184: warn: Adding to CR2 address 0x49000
src/arch/x86/tlb.cc:424: warn: TLB Message - Read the value from CR2: 0x49000
src/arch/x86/tlb.cc:505: warn: TLB Message - Resetting CR2 back to 0x0
.
src/arch/x86/faults.cc:177: warn: Looking up address for 0x7fff92878008
src/arch/x86/faults.cc:184: warn: Adding to CR2 address 0x4a000
src/arch/x86/tlb.cc:424: warn: TLB Message - Read the value from CR2: 0x4a000
src/arch/x86/tlb.cc:505: warn: TLB Message - Resetting CR2 back to 0x0
.
src/arch/x86/faults.cc:177: warn: Looking up address for 0x7fff9287b754
src/arch/x86/faults.cc:184: warn: Adding to CR2 address 0x4b000
src/arch/x86/tlb.cc:424: warn: TLB Message - Read the value from CR2: 0x4b000
src/arch/x86/tlb.cc:505: warn: TLB Message - Resetting CR2 back to 0x0
.
src/arch/x86/faults.cc:177: warn: Looking up address for 0x7fff928831bb
src/arch/x86/faults.cc:184: warn: Adding to CR2 address 0x4c000
src/arch/x86/tlb.cc:424: warn: TLB Message - Read the value from CR2: 0x4c000
src/arch/x86/tlb.cc:505: warn: TLB Message - Resetting CR2 back to 0x0
.
src/arch/x86/faults.cc:177: warn: Looking up address for 0x7fff92879bac
src/arch/x86/faults.cc:184: warn: Adding to CR2 address 0x4d000
src/arch/x86/tlb.cc:424: warn: TLB Message - Read the value from CR2: 0x4d000
src/arch/x86/tlb.cc:505: warn: TLB Message - Resetting CR2 back to 0x0
.
src/arch/x86/faults.cc:177: warn: Looking up address for 0x7fff928802ca
src/arch/x86/faults.cc:184: warn: Adding to CR2 address 0x4e000
src/arch/x86/tlb.cc:424: warn: TLB Message - Read the value from CR2: 0x4e000
src/arch/x86/tlb.cc:505: warn: TLB Message - Resetting CR2 back to 0x0
.
src/arch/x86/faults.cc:177: warn: Looking up address for 0x7fff928882af
src/arch/x86/faults.cc:184: warn: Adding to CR2 address 0x4f000
src/arch/x86/tlb.cc:424: warn: TLB Message - Read the value from CR2: 0x4f000
src/arch/x86/tlb.cc:505: warn: TLB Message - Resetting CR2 back to 0x0
.
src/arch/x86/faults.cc:177: warn: Looking up address for 0x7fff92887c8b
src/arch/x86/faults.cc:184: warn: Adding to CR2 address 0x50000
src/arch/x86/tlb.cc:424: warn: TLB Message - Read the value from CR2: 0x50000
src/arch/x86/tlb.cc:505: warn: TLB Message - Resetting CR2 back to 0x0
.
src/arch/x86/faults.cc:177: warn: Looking up address for 0x7fff928896f0
src/arch/x86/faults.cc:184: warn: Adding to CR2 address 0x51000
src/arch/x86/tlb.cc:424: warn: TLB Message - Read the value from CR2: 0x51000
src/arch/x86/tlb.cc:505: warn: TLB Message - Resetting CR2 back to 0x0
.
src/arch/x86/faults.cc:177: warn: Looking up address for 0x7fff928818cd
src/arch/x86/faults.cc:184: warn: Adding to CR2 address 0x52000
src/arch/x86/tlb.cc:424: warn: TLB Message - Read the value from CR2: 0x52000
src/arch/x86/tlb.cc:505: warn: TLB Message - Resetting CR2 back to 0x0
.
src/sim/syscall_emul.cc:74: warn: ignoring syscall mprotect(...)
src/arch/x86/faults.cc:177: warn: Looking up address for 0x7fff92874258
src/arch/x86/faults.cc:184: warn: Adding to CR2 address 0x53000
src/arch/x86/tlb.cc:424: warn: TLB Message - Read the value from CR2: 0x53000
src/arch/x86/tlb.cc:505: warn: TLB Message - Resetting CR2 back to 0x0
.
src/arch/x86/faults.cc:177: warn: Looking up address for 0x7fff92870c90
src/arch/x86/faults.cc:184: warn: Adding to CR2 address 0x54000
src/arch/x86/tlb.cc:424: warn: TLB Message - Read the value from CR2: 0x54000
src/arch/x86/tlb.cc:505: warn: TLB Message - Resetting CR2 back to 0x0
.
src/arch/x86/faults.cc:177: warn: Looking up address for 0x7fff9264c2a8
src/arch/x86/faults.cc:184: warn: Adding to CR2 address 0x55000
src/arch/x86/tlb.cc:424: warn: TLB Message - Read the value from CR2: 0x55000
src/arch/x86/tlb.cc:505: warn: TLB Message - Resetting CR2 back to 0x0
.
src/arch/x86/faults.cc:177: warn: Looking up address for 0x7fff926c2d1a
src/arch/x86/faults.cc:184: warn: Adding to CR2 address 0x56000
src/arch/x86/tlb.cc:424: warn: TLB Message - Read the value from CR2: 0x56000
src/arch/x86/tlb.cc:505: warn: TLB Message - Resetting CR2 back to 0x0
.
src/arch/x86/faults.cc:177: warn: Looking up address for 0x7fff9287d2e4
src/arch/x86/faults.cc:184: warn: Adding to CR2 address 0x57000
src/arch/x86/tlb.cc:424: warn: TLB Message - Read the value from CR2: 0x57000
src/arch/x86/tlb.cc:505: warn: TLB Message - Resetting CR2 back to 0x0
.
src/arch/x86/faults.cc:177: warn: Looking up address for 0x7fff928869eb
src/arch/x86/faults.cc:184: warn: Adding to CR2 address 0x58000
src/arch/x86/tlb.cc:424: warn: TLB Message - Read the value from CR2: 0x58000
src/arch/x86/tlb.cc:505: warn: TLB Message - Resetting CR2 back to 0x0
.
src/arch/x86/faults.cc:177: warn: Looking up address for 0x7fff9287c51c
src/arch/x86/faults.cc:184: warn: Adding to CR2 address 0x59000
src/arch/x86/tlb.cc:424: warn: TLB Message - Read the value from CR2: 0x59000
src/arch/x86/tlb.cc:505: warn: TLB Message - Resetting CR2 back to 0x0
.
src/arch/x86/faults.cc:177: warn: Looking up address for 0x7fff928841b7
src/arch/x86/faults.cc:184: warn: Adding to CR2 address 0x5a000
src/arch/x86/tlb.cc:424: warn: TLB Message - Read the value from CR2: 0x5a000
src/arch/x86/tlb.cc:505: warn: TLB Message - Resetting CR2 back to 0x0
.
src/arch/x86/faults.cc:177: warn: Looking up address for 0x7fff928859a5
src/arch/x86/faults.cc:184: warn: Adding to CR2 address 0x5b000
src/arch/x86/tlb.cc:424: warn: TLB Message - Read the value from CR2: 0x5b000
src/arch/x86/tlb.cc:505: warn: TLB Message - Resetting CR2 back to 0x0
.
src/arch/x86/faults.cc:177: warn: Looking up address for 0x7fff9264b1a8
src/arch/x86/faults.cc:184: warn: Adding to CR2 address 0x5c000
src/arch/x86/tlb.cc:424: warn: TLB Message - Read the value from CR2: 0x5c000
src/arch/x86/tlb.cc:505: warn: TLB Message - Resetting CR2 back to 0x0
.
src/arch/x86/faults.cc:177: warn: Looking up address for 0x7fff9264ade0
src/arch/x86/faults.cc:184: warn: Adding to CR2 address 0x5d000
src/arch/x86/tlb.cc:424: warn: TLB Message - Read the value from CR2: 0x5d000
src/arch/x86/tlb.cc:505: warn: TLB Message - Resetting CR2 back to 0x0
.
src/arch/x86/faults.cc:177: warn: Looking up address for 0x7fff9262c270
src/arch/x86/faults.cc:184: warn: Adding to CR2 address 0x5e000
src/arch/x86/tlb.cc:424: warn: TLB Message - Read the value from CR2: 0x5e000
src/arch/x86/tlb.cc:505: warn: TLB Message - Resetting CR2 back to 0x0
.
src/arch/x86/faults.cc:177: warn: Looking up address for 0x7fff9262e30b
src/arch/x86/faults.cc:184: warn: Adding to CR2 address 0x5f000
src/arch/x86/tlb.cc:424: warn: TLB Message - Read the value from CR2: 0x5f000
src/arch/x86/tlb.cc:505: warn: TLB Message - Resetting CR2 back to 0x0
.
src/arch/x86/faults.cc:177: warn: Looking up address for 0x7fff9287e0ac
src/arch/x86/faults.cc:184: warn: Adding to CR2 address 0x60000
src/arch/x86/tlb.cc:424: warn: TLB Message - Read the value from CR2: 0x60000
src/arch/x86/tlb.cc:505: warn: TLB Message - Resetting CR2 back to 0x0
.
src/arch/x86/faults.cc:177: warn: Looking up address for 0x7fff9288a782
src/arch/x86/faults.cc:184: warn: Adding to CR2 address 0x61000
src/arch/x86/tlb.cc:424: warn: TLB Message - Read the value from CR2: 0x61000
src/arch/x86/tlb.cc:505: warn: TLB Message - Resetting CR2 back to 0x0
.
src/arch/x86/faults.cc:177: warn: Looking up address for 0x7fff9287ff38
src/arch/x86/faults.cc:184: warn: Adding to CR2 address 0x62000
src/arch/x86/tlb.cc:424: warn: TLB Message - Read the value from CR2: 0x62000
src/arch/x86/tlb.cc:505: warn: TLB Message - Resetting CR2 back to 0x0
.
src/arch/x86/faults.cc:177: warn: Looking up address for 0x7ffff7ffe048
src/arch/x86/faults.cc:184: warn: Adding to CR2 address 0x63000
src/arch/x86/tlb.cc:424: warn: TLB Message - Read the value from CR2: 0x63000
src/arch/x86/tlb.cc:505: warn: TLB Message - Resetting CR2 back to 0x0
.
src/arch/x86/faults.cc:177: warn: Looking up address for 0x7fff9261e888
src/arch/x86/faults.cc:184: warn: Adding to CR2 address 0x64000
src/arch/x86/tlb.cc:424: warn: TLB Message - Read the value from CR2: 0x64000
src/arch/x86/tlb.cc:505: warn: TLB Message - Resetting CR2 back to 0x0
.
src/arch/x86/faults.cc:177: warn: Looking up address for 0x7fff9261cbc0
src/arch/x86/faults.cc:184: warn: Adding to CR2 address 0x65000
src/arch/x86/tlb.cc:424: warn: TLB Message - Read the value from CR2: 0x65000
src/arch/x86/tlb.cc:505: warn: TLB Message - Resetting CR2 back to 0x0
.
src/arch/x86/faults.cc:177: warn: Looking up address for 0x7fff92404318
src/arch/x86/faults.cc:184: warn: Adding to CR2 address 0x66000
src/arch/x86/tlb.cc:424: warn: TLB Message - Read the value from CR2: 0x66000
src/arch/x86/tlb.cc:505: warn: TLB Message - Resetting CR2 back to 0x0
.
src/arch/x86/faults.cc:177: warn: Looking up address for 0x7fff924223ce
src/arch/x86/faults.cc:184: warn: Adding to CR2 address 0x67000
src/arch/x86/tlb.cc:424: warn: TLB Message - Read the value from CR2: 0x67000
src/arch/x86/tlb.cc:505: warn: TLB Message - Resetting CR2 back to 0x0
.
src/arch/x86/faults.cc:177: warn: Looking up address for 0x7fff9287a974
src/arch/x86/faults.cc:184: warn: Adding to CR2 address 0x68000
src/arch/x86/tlb.cc:424: warn: TLB Message - Read the value from CR2: 0x68000
src/arch/x86/tlb.cc:505: warn: TLB Message - Resetting CR2 back to 0x0
.
src/arch/x86/faults.cc:177: warn: Looking up address for 0x7fff924030fc
src/arch/x86/faults.cc:184: warn: Adding to CR2 address 0x69000
src/arch/x86/tlb.cc:424: warn: TLB Message - Read the value from CR2: 0x69000
src/arch/x86/tlb.cc:505: warn: TLB Message - Resetting CR2 back to 0x0
.
src/arch/x86/faults.cc:177: warn: Looking up address for 0x7fff92402d90
src/arch/x86/faults.cc:184: warn: Adding to CR2 address 0x6a000
src/arch/x86/tlb.cc:424: warn: TLB Message - Read the value from CR2: 0x6a000
src/arch/x86/tlb.cc:505: warn: TLB Message - Resetting CR2 back to 0x0
.
src/arch/x86/faults.cc:177: warn: Looking up address for 0x7fff9231d270
src/arch/x86/faults.cc:184: warn: Adding to CR2 address 0x6b000
src/arch/x86/tlb.cc:424: warn: TLB Message - Read the value from CR2: 0x6b000
src/arch/x86/tlb.cc:505: warn: TLB Message - Resetting CR2 back to 0x0
.
src/arch/x86/faults.cc:177: warn: Looking up address for 0x7fff92329267
src/arch/x86/faults.cc:184: warn: Adding to CR2 address 0x6c000
src/arch/x86/tlb.cc:424: warn: TLB Message - Read the value from CR2: 0x6c000
src/arch/x86/tlb.cc:505: warn: TLB Message - Resetting CR2 back to 0x0
.
src/arch/x86/faults.cc:177: warn: Looking up address for 0x7fff92423d08
src/arch/x86/faults.cc:184: warn: Adding to CR2 address 0x6d000
src/arch/x86/tlb.cc:424: warn: TLB Message - Read the value from CR2: 0x6d000
src/arch/x86/tlb.cc:505: warn: TLB Message - Resetting CR2 back to 0x0
.
src/arch/x86/faults.cc:177: warn: Looking up address for 0x7fff92424010
src/arch/x86/faults.cc:184: warn: Adding to CR2 address 0x6e000
src/arch/x86/tlb.cc:424: warn: TLB Message - Read the value from CR2: 0x6e000
src/arch/x86/tlb.cc:505: warn: TLB Message - Resetting CR2 back to 0x0
.
src/arch/x86/faults.cc:177: warn: Looking up address for 0x7fff926c60c0
src/arch/x86/faults.cc:184: warn: Adding to CR2 address 0x6f000
src/arch/x86/tlb.cc:424: warn: TLB Message - Read the value from CR2: 0x6f000
src/arch/x86/tlb.cc:505: warn: TLB Message - Resetting CR2 back to 0x0
.
src/arch/x86/faults.cc:177: warn: Looking up address for 0x7fff926c3000
src/arch/x86/faults.cc:184: warn: Adding to CR2 address 0x70000
src/arch/x86/tlb.cc:424: warn: TLB Message - Read the value from CR2: 0x70000
src/arch/x86/tlb.cc:505: warn: TLB Message - Resetting CR2 back to 0x0
.
src/arch/x86/faults.cc:177: warn: Looking up address for 0x7fff9231b1bc
src/arch/x86/faults.cc:184: warn: Adding to CR2 address 0x71000
src/arch/x86/tlb.cc:424: warn: TLB Message - Read the value from CR2: 0x71000
src/arch/x86/tlb.cc:505: warn: TLB Message - Resetting CR2 back to 0x0
.
src/arch/x86/faults.cc:177: warn: Looking up address for 0x7fff9231c3c0
src/arch/x86/faults.cc:184: warn: Adding to CR2 address 0x72000
src/arch/x86/tlb.cc:424: warn: TLB Message - Read the value from CR2: 0x72000
src/arch/x86/tlb.cc:505: warn: TLB Message - Resetting CR2 back to 0x0
.
src/sim/syscall_emul.cc:74: warn: ignoring syscall set_robust_list(...)
src/sim/syscall_emul.cc:74: warn: ignoring syscall rseq(...)
src/arch/x86/faults.cc:177: warn: Looking up address for 0x7fff9261d008
src/arch/x86/faults.cc:184: warn: Adding to CR2 address 0x73000
src/arch/x86/tlb.cc:424: warn: TLB Message - Read the value from CR2: 0x73000
src/arch/x86/tlb.cc:505: warn: TLB Message - Resetting CR2 back to 0x0
.
src/arch/x86/faults.cc:177: warn: Looking up address for 0x7fff926198f0
src/arch/x86/faults.cc:184: warn: Adding to CR2 address 0x74000
src/arch/x86/tlb.cc:424: warn: TLB Message - Read the value from CR2: 0x74000
src/arch/x86/tlb.cc:505: warn: TLB Message - Resetting CR2 back to 0x0
.
src/arch/x86/faults.cc:177: warn: Looking up address for 0x7fff92425000
src/arch/x86/faults.cc:184: warn: Adding to CR2 address 0x75000
src/arch/x86/tlb.cc:424: warn: TLB Message - Read the value from CR2: 0x75000
src/arch/x86/tlb.cc:505: warn: TLB Message - Resetting CR2 back to 0x0
.
src/arch/x86/faults.cc:177: warn: Looking up address for 0x7fff9261a010
src/arch/x86/faults.cc:184: warn: Adding to CR2 address 0x76000
src/arch/x86/tlb.cc:424: warn: TLB Message - Read the value from CR2: 0x76000
src/arch/x86/tlb.cc:505: warn: TLB Message - Resetting CR2 back to 0x0
.
src/arch/x86/faults.cc:177: warn: Looking up address for 0x7fff92426000
src/arch/x86/faults.cc:184: warn: Adding to CR2 address 0x77000
src/arch/x86/tlb.cc:424: warn: TLB Message - Read the value from CR2: 0x77000
src/arch/x86/tlb.cc:505: warn: TLB Message - Resetting CR2 back to 0x0
.
src/arch/x86/faults.cc:177: warn: Looking up address for 0x7fff92427000
src/arch/x86/faults.cc:184: warn: Adding to CR2 address 0x78000
src/arch/x86/tlb.cc:424: warn: TLB Message - Read the value from CR2: 0x78000
src/arch/x86/tlb.cc:505: warn: TLB Message - Resetting CR2 back to 0x0
.
src/arch/x86/faults.cc:177: warn: Looking up address for 0x7fff9261b000
src/arch/x86/faults.cc:184: warn: Adding to CR2 address 0x79000
src/arch/x86/tlb.cc:424: warn: TLB Message - Read the value from CR2: 0x79000
src/arch/x86/tlb.cc:505: warn: TLB Message - Resetting CR2 back to 0x0
.
src/arch/x86/faults.cc:177: warn: Looking up address for 0x7fff92428000
src/arch/x86/faults.cc:184: warn: Adding to CR2 address 0x7a000
src/arch/x86/tlb.cc:424: warn: TLB Message - Read the value from CR2: 0x7a000
src/arch/x86/tlb.cc:505: warn: TLB Message - Resetting CR2 back to 0x0
.
src/arch/x86/faults.cc:177: warn: Looking up address for 0x7fff92429000
src/arch/x86/faults.cc:184: warn: Adding to CR2 address 0x7b000
src/arch/x86/tlb.cc:424: warn: TLB Message - Read the value from CR2: 0x7b000
src/arch/x86/tlb.cc:505: warn: TLB Message - Resetting CR2 back to 0x0
.
src/arch/x86/faults.cc:177: warn: Looking up address for 0x7fff9242a000
src/arch/x86/faults.cc:184: warn: Adding to CR2 address 0x7c000
src/arch/x86/tlb.cc:424: warn: TLB Message - Read the value from CR2: 0x7c000
src/arch/x86/tlb.cc:505: warn: TLB Message - Resetting CR2 back to 0x0
.
src/arch/x86/faults.cc:177: warn: Looking up address for 0x7fff9242b000
src/arch/x86/faults.cc:184: warn: Adding to CR2 address 0x7d000
src/arch/x86/tlb.cc:424: warn: TLB Message - Read the value from CR2: 0x7d000
src/arch/x86/tlb.cc:505: warn: TLB Message - Resetting CR2 back to 0x0
.
src/arch/x86/faults.cc:177: warn: Looking up address for 0x7fff9241337c
src/arch/x86/faults.cc:184: warn: Adding to CR2 address 0x7e000
src/arch/x86/tlb.cc:424: warn: TLB Message - Read the value from CR2: 0x7e000
src/arch/x86/tlb.cc:505: warn: TLB Message - Resetting CR2 back to 0x0
.
src/arch/x86/faults.cc:177: warn: Looking up address for 0x7fff92420d3c
src/arch/x86/faults.cc:184: warn: Adding to CR2 address 0x7f000
src/arch/x86/tlb.cc:424: warn: TLB Message - Read the value from CR2: 0x7f000
src/arch/x86/tlb.cc:505: warn: TLB Message - Resetting CR2 back to 0x0
.
src/arch/x86/faults.cc:177: warn: Looking up address for 0x7fff924055d4
src/arch/x86/faults.cc:184: warn: Adding to CR2 address 0x80000
src/arch/x86/tlb.cc:424: warn: TLB Message - Read the value from CR2: 0x80000
src/arch/x86/tlb.cc:505: warn: TLB Message - Resetting CR2 back to 0x0
.
src/arch/x86/faults.cc:177: warn: Looking up address for 0x7fff924077a8
src/arch/x86/faults.cc:184: warn: Adding to CR2 address 0x81000
src/arch/x86/tlb.cc:424: warn: TLB Message - Read the value from CR2: 0x81000
src/arch/x86/tlb.cc:505: warn: TLB Message - Resetting CR2 back to 0x0
.
src/arch/x86/faults.cc:177: warn: Looking up address for 0x7fff92408ad4
src/arch/x86/faults.cc:184: warn: Adding to CR2 address 0x82000
src/arch/x86/tlb.cc:424: warn: TLB Message - Read the value from CR2: 0x82000
src/arch/x86/tlb.cc:505: warn: TLB Message - Resetting CR2 back to 0x0
.
src/arch/x86/faults.cc:177: warn: Looking up address for 0x7fff9240aeec
src/arch/x86/faults.cc:184: warn: Adding to CR2 address 0x83000
src/arch/x86/tlb.cc:424: warn: TLB Message - Read the value from CR2: 0x83000
src/arch/x86/tlb.cc:505: warn: TLB Message - Resetting CR2 back to 0x0
.
src/arch/x86/faults.cc:177: warn: Looking up address for 0x7fff9241c3ef
src/arch/x86/faults.cc:184: warn: Adding to CR2 address 0x84000
src/arch/x86/tlb.cc:424: warn: TLB Message - Read the value from CR2: 0x84000
src/arch/x86/tlb.cc:505: warn: TLB Message - Resetting CR2 back to 0x0
.
src/arch/x86/faults.cc:177: warn: Looking up address for 0x7fff92406190
src/arch/x86/faults.cc:184: warn: Adding to CR2 address 0x85000
src/arch/x86/tlb.cc:424: warn: TLB Message - Read the value from CR2: 0x85000
src/arch/x86/tlb.cc:505: warn: TLB Message - Resetting CR2 back to 0x0
.
src/arch/x86/faults.cc:177: warn: Looking up address for 0x7fff92410b44
src/arch/x86/faults.cc:184: warn: Adding to CR2 address 0x86000
src/arch/x86/tlb.cc:424: warn: TLB Message - Read the value from CR2: 0x86000
src/arch/x86/tlb.cc:505: warn: TLB Message - Resetting CR2 back to 0x0
.
src/arch/x86/faults.cc:177: warn: Looking up address for 0x7fff9241a6d7
src/arch/x86/faults.cc:184: warn: Adding to CR2 address 0x87000
src/arch/x86/tlb.cc:424: warn: TLB Message - Read the value from CR2: 0x87000
src/arch/x86/tlb.cc:505: warn: TLB Message - Resetting CR2 back to 0x0
.
src/arch/x86/faults.cc:177: warn: Looking up address for 0x7fff9264d288
src/arch/x86/faults.cc:184: warn: Adding to CR2 address 0x88000
src/arch/x86/tlb.cc:424: warn: TLB Message - Read the value from CR2: 0x88000
src/arch/x86/tlb.cc:505: warn: TLB Message - Resetting CR2 back to 0x0
.
src/arch/x86/faults.cc:177: warn: Looking up address for 0x7fff92414594
src/arch/x86/faults.cc:184: warn: Adding to CR2 address 0x89000
src/arch/x86/tlb.cc:424: warn: TLB Message - Read the value from CR2: 0x89000
src/arch/x86/tlb.cc:505: warn: TLB Message - Resetting CR2 back to 0x0
.
src/arch/x86/faults.cc:177: warn: Looking up address for 0x7fff9241b08d
src/arch/x86/faults.cc:184: warn: Adding to CR2 address 0x8a000
src/arch/x86/tlb.cc:424: warn: TLB Message - Read the value from CR2: 0x8a000
src/arch/x86/tlb.cc:505: warn: TLB Message - Resetting CR2 back to 0x0
.
src/arch/x86/faults.cc:177: warn: Looking up address for 0x7fff9241880c
src/arch/x86/faults.cc:184: warn: Adding to CR2 address 0x8b000
src/arch/x86/tlb.cc:424: warn: TLB Message - Read the value from CR2: 0x8b000
src/arch/x86/tlb.cc:505: warn: TLB Message - Resetting CR2 back to 0x0
.
src/arch/x86/faults.cc:177: warn: Looking up address for 0x7fff924114d4
src/arch/x86/faults.cc:184: warn: Adding to CR2 address 0x8c000
src/arch/x86/tlb.cc:424: warn: TLB Message - Read the value from CR2: 0x8c000
src/arch/x86/tlb.cc:505: warn: TLB Message - Resetting CR2 back to 0x0
.
src/arch/x86/faults.cc:177: warn: Looking up address for 0x7fff9241f42e
src/arch/x86/faults.cc:184: warn: Adding to CR2 address 0x8d000
src/arch/x86/tlb.cc:424: warn: TLB Message - Read the value from CR2: 0x8d000
src/arch/x86/tlb.cc:505: warn: TLB Message - Resetting CR2 back to 0x0
.
src/arch/x86/faults.cc:177: warn: Looking up address for 0x7fff9264e004
src/arch/x86/faults.cc:184: warn: Adding to CR2 address 0x8e000
src/arch/x86/tlb.cc:424: warn: TLB Message - Read the value from CR2: 0x8e000
src/arch/x86/tlb.cc:505: warn: TLB Message - Resetting CR2 back to 0x0
.
src/arch/x86/faults.cc:177: warn: Looking up address for 0x7fff926518fc
src/arch/x86/faults.cc:184: warn: Adding to CR2 address 0x8f000
src/arch/x86/tlb.cc:424: warn: TLB Message - Read the value from CR2: 0x8f000
src/arch/x86/tlb.cc:505: warn: TLB Message - Resetting CR2 back to 0x0
.
src/arch/x86/faults.cc:177: warn: Looking up address for 0x7fff924177a4
src/arch/x86/faults.cc:184: warn: Adding to CR2 address 0x90000
src/arch/x86/tlb.cc:424: warn: TLB Message - Read the value from CR2: 0x90000
src/arch/x86/tlb.cc:505: warn: TLB Message - Resetting CR2 back to 0x0
.
src/arch/x86/faults.cc:177: warn: Looking up address for 0x7fff92650ea8
src/arch/x86/faults.cc:184: warn: Adding to CR2 address 0x91000
src/arch/x86/tlb.cc:424: warn: TLB Message - Read the value from CR2: 0x91000
src/arch/x86/tlb.cc:505: warn: TLB Message - Resetting CR2 back to 0x0
.
src/arch/x86/faults.cc:177: warn: Looking up address for 0x7fff9241508c
src/arch/x86/faults.cc:184: warn: Adding to CR2 address 0x92000
src/arch/x86/tlb.cc:424: warn: TLB Message - Read the value from CR2: 0x92000
src/arch/x86/tlb.cc:505: warn: TLB Message - Resetting CR2 back to 0x0
.
src/arch/x86/faults.cc:177: warn: Looking up address for 0x7fff9240b39c
src/arch/x86/faults.cc:184: warn: Adding to CR2 address 0x93000
src/arch/x86/tlb.cc:424: warn: TLB Message - Read the value from CR2: 0x93000
src/arch/x86/tlb.cc:505: warn: TLB Message - Resetting CR2 back to 0x0
.
src/arch/x86/faults.cc:177: warn: Looking up address for 0x7fff924129d4
src/arch/x86/faults.cc:184: warn: Adding to CR2 address 0x94000
src/arch/x86/tlb.cc:424: warn: TLB Message - Read the value from CR2: 0x94000
src/arch/x86/tlb.cc:505: warn: TLB Message - Resetting CR2 back to 0x0
.
src/arch/x86/faults.cc:177: warn: Looking up address for 0x7fff92421080
src/arch/x86/faults.cc:184: warn: Adding to CR2 address 0x95000
src/arch/x86/tlb.cc:424: warn: TLB Message - Read the value from CR2: 0x95000
src/arch/x86/tlb.cc:505: warn: TLB Message - Resetting CR2 back to 0x0
.
src/arch/x86/faults.cc:177: warn: Looking up address for 0x7fff9241d548
src/arch/x86/faults.cc:184: warn: Adding to CR2 address 0x96000
src/arch/x86/tlb.cc:424: warn: TLB Message - Read the value from CR2: 0x96000
src/arch/x86/tlb.cc:505: warn: TLB Message - Resetting CR2 back to 0x0
.
src/arch/x86/faults.cc:177: warn: Looking up address for 0x7fff92652594
src/arch/x86/faults.cc:184: warn: Adding to CR2 address 0x97000
src/arch/x86/tlb.cc:424: warn: TLB Message - Read the value from CR2: 0x97000
src/arch/x86/tlb.cc:505: warn: TLB Message - Resetting CR2 back to 0x0
.
src/arch/x86/faults.cc:177: warn: Looking up address for 0x7fff924095fc
src/arch/x86/faults.cc:184: warn: Adding to CR2 address 0x98000
src/arch/x86/tlb.cc:424: warn: TLB Message - Read the value from CR2: 0x98000
src/arch/x86/tlb.cc:505: warn: TLB Message - Resetting CR2 back to 0x0
.
src/arch/x86/faults.cc:177: warn: Looking up address for 0x7fff924190c4
src/arch/x86/faults.cc:184: warn: Adding to CR2 address 0x99000
src/arch/x86/tlb.cc:424: warn: TLB Message - Read the value from CR2: 0x99000
src/arch/x86/tlb.cc:505: warn: TLB Message - Resetting CR2 back to 0x0
.
src/arch/x86/faults.cc:177: warn: Looking up address for 0x7fff9241e4a6
src/arch/x86/faults.cc:184: warn: Adding to CR2 address 0x9a000
src/arch/x86/tlb.cc:424: warn: TLB Message - Read the value from CR2: 0x9a000
src/arch/x86/tlb.cc:505: warn: TLB Message - Resetting CR2 back to 0x0
.
src/arch/x86/faults.cc:177: warn: Looking up address for 0x7fff92416e74
src/arch/x86/faults.cc:184: warn: Adding to CR2 address 0x9b000
src/arch/x86/tlb.cc:424: warn: TLB Message - Read the value from CR2: 0x9b000
src/arch/x86/tlb.cc:505: warn: TLB Message - Resetting CR2 back to 0x0
.
src/arch/x86/faults.cc:177: warn: Looking up address for 0x7fff9240e294
src/arch/x86/faults.cc:184: warn: Adding to CR2 address 0x9c000
src/arch/x86/tlb.cc:424: warn: TLB Message - Read the value from CR2: 0x9c000
src/arch/x86/tlb.cc:505: warn: TLB Message - Resetting CR2 back to 0x0
.
src/arch/x86/faults.cc:177: warn: Looking up address for 0x7fff9240dc1c
src/arch/x86/faults.cc:184: warn: Adding to CR2 address 0x9d000
src/arch/x86/tlb.cc:424: warn: TLB Message - Read the value from CR2: 0x9d000
src/arch/x86/tlb.cc:505: warn: TLB Message - Resetting CR2 back to 0x0
.
src/arch/x86/faults.cc:177: warn: Looking up address for 0x7fff92654144
src/arch/x86/faults.cc:184: warn: Adding to CR2 address 0x9e000
src/arch/x86/tlb.cc:424: warn: TLB Message - Read the value from CR2: 0x9e000
src/arch/x86/tlb.cc:505: warn: TLB Message - Resetting CR2 back to 0x0
.
src/arch/x86/faults.cc:177: warn: Looking up address for 0x7fff92653368
src/arch/x86/faults.cc:184: warn: Adding to CR2 address 0x9f000
src/arch/x86/tlb.cc:424: warn: TLB Message - Read the value from CR2: 0x9f000
src/arch/x86/tlb.cc:505: warn: TLB Message - Resetting CR2 back to 0x0
.
src/arch/x86/faults.cc:177: warn: Looking up address for 0x7fff9240c4f4
src/arch/x86/faults.cc:184: warn: Adding to CR2 address 0xa0000
src/arch/x86/tlb.cc:424: warn: TLB Message - Read the value from CR2: 0xa0000
src/arch/x86/tlb.cc:505: warn: TLB Message - Resetting CR2 back to 0x0
.
src/arch/x86/faults.cc:177: warn: Looking up address for 0x7fff9264f770
src/arch/x86/faults.cc:184: warn: Adding to CR2 address 0xa1000
src/arch/x86/tlb.cc:424: warn: TLB Message - Read the value from CR2: 0xa1000
src/arch/x86/tlb.cc:505: warn: TLB Message - Resetting CR2 back to 0x0
.
src/arch/x86/faults.cc:177: warn: Looking up address for 0x7fff924c91a0
src/arch/x86/faults.cc:184: warn: Adding to CR2 address 0xa2000
src/arch/x86/tlb.cc:424: warn: TLB Message - Read the value from CR2: 0xa2000
src/arch/x86/tlb.cc:447: warn: CR2 value used to avoid miss
src/arch/x86/tlb.cc:505: warn: TLB Message - Resetting CR2 back to 0x0
.
src/arch/x86/faults.cc:177: warn: Looking up address for 0x7fff926245a8
src/arch/x86/faults.cc:184: warn: Adding to CR2 address 0xa3000
src/arch/x86/tlb.cc:424: warn: TLB Message - Read the value from CR2: 0xa3000
src/arch/x86/tlb.cc:505: warn: TLB Message - Resetting CR2 back to 0x0
.
src/arch/x86/faults.cc:177: warn: Looking up address for 0x7fff924ac720
src/arch/x86/faults.cc:184: warn: Adding to CR2 address 0xa4000
src/arch/x86/tlb.cc:424: warn: TLB Message - Read the value from CR2: 0xa4000
src/arch/x86/tlb.cc:447: warn: CR2 value used to avoid miss
src/arch/x86/tlb.cc:505: warn: TLB Message - Resetting CR2 back to 0x0
.
src/arch/x86/faults.cc:177: warn: Looking up address for 0x7fff924cacd0
src/arch/x86/faults.cc:184: warn: Adding to CR2 address 0xa5000
src/arch/x86/tlb.cc:424: warn: TLB Message - Read the value from CR2: 0xa5000
src/arch/x86/tlb.cc:447: warn: CR2 value used to avoid miss
src/arch/x86/tlb.cc:505: warn: TLB Message - Resetting CR2 back to 0x0
.
src/arch/x86/faults.cc:177: warn: Looking up address for 0x7fff924ad6d0
src/arch/x86/faults.cc:184: warn: Adding to CR2 address 0xa6000
src/arch/x86/tlb.cc:424: warn: TLB Message - Read the value from CR2: 0xa6000
src/arch/x86/tlb.cc:447: warn: CR2 value used to avoid miss
src/arch/x86/tlb.cc:505: warn: TLB Message - Resetting CR2 back to 0x0
.
src/arch/x86/faults.cc:177: warn: Looking up address for 0x7fff924b5570
src/arch/x86/faults.cc:184: warn: Adding to CR2 address 0xa7000
src/arch/x86/tlb.cc:424: warn: TLB Message - Read the value from CR2: 0xa7000
src/arch/x86/tlb.cc:447: warn: CR2 value used to avoid miss
src/arch/x86/tlb.cc:505: warn: TLB Message - Resetting CR2 back to 0x0
.
src/arch/x86/faults.cc:177: warn: Looking up address for 0x7fff924af010
src/arch/x86/faults.cc:184: warn: Adding to CR2 address 0xa8000
src/arch/x86/tlb.cc:424: warn: TLB Message - Read the value from CR2: 0xa8000
src/arch/x86/tlb.cc:447: warn: CR2 value used to avoid miss
src/arch/x86/tlb.cc:505: warn: TLB Message - Resetting CR2 back to 0x0
.
src/arch/x86/faults.cc:177: warn: Looking up address for 0x7fff924aef80
src/arch/x86/faults.cc:184: warn: Adding to CR2 address 0xa9000
src/arch/x86/tlb.cc:424: warn: TLB Message - Read the value from CR2: 0xa9000
src/arch/x86/tlb.cc:447: warn: CR2 value used to avoid miss
src/arch/x86/tlb.cc:505: warn: TLB Message - Resetting CR2 back to 0x0
.
src/sim/syscall_emul.cc:74: warn: ignoring syscall mprotect(...)
src/arch/x86/faults.cc:177: warn: Looking up address for 0x7fff9231f99c
src/arch/x86/faults.cc:184: warn: Adding to CR2 address 0xaa000
src/arch/x86/tlb.cc:424: warn: TLB Message - Read the value from CR2: 0xaa000
src/arch/x86/tlb.cc:505: warn: TLB Message - Resetting CR2 back to 0x0
.
src/arch/x86/faults.cc:177: warn: Looking up address for 0x7fff92326b18
src/arch/x86/faults.cc:184: warn: Adding to CR2 address 0xab000
src/arch/x86/tlb.cc:424: warn: TLB Message - Read the value from CR2: 0xab000
src/arch/x86/tlb.cc:505: warn: TLB Message - Resetting CR2 back to 0x0
.
src/arch/x86/faults.cc:177: warn: Looking up address for 0x7fff92325024
src/arch/x86/faults.cc:184: warn: Adding to CR2 address 0xac000
src/arch/x86/tlb.cc:424: warn: TLB Message - Read the value from CR2: 0xac000
src/arch/x86/tlb.cc:505: warn: TLB Message - Resetting CR2 back to 0x0
.
src/arch/x86/faults.cc:177: warn: Looking up address for 0x7fff9231e320
src/arch/x86/faults.cc:184: warn: Adding to CR2 address 0xad000
src/arch/x86/tlb.cc:424: warn: TLB Message - Read the value from CR2: 0xad000
src/arch/x86/tlb.cc:505: warn: TLB Message - Resetting CR2 back to 0x0
.
src/arch/x86/faults.cc:177: warn: Looking up address for 0x7fff92327782
src/arch/x86/faults.cc:184: warn: Adding to CR2 address 0xae000
src/arch/x86/tlb.cc:424: warn: TLB Message - Read the value from CR2: 0xae000
src/arch/x86/tlb.cc:505: warn: TLB Message - Resetting CR2 back to 0x0
.
src/arch/x86/faults.cc:177: warn: Looking up address for 0x7fff923202e4
src/arch/x86/faults.cc:184: warn: Adding to CR2 address 0xaf000
src/arch/x86/tlb.cc:424: warn: TLB Message - Read the value from CR2: 0xaf000
src/arch/x86/tlb.cc:505: warn: TLB Message - Resetting CR2 back to 0x0
.
src/arch/x86/faults.cc:177: warn: Looking up address for 0x7fff9232a000
src/arch/x86/faults.cc:184: warn: Adding to CR2 address 0xb0000
src/arch/x86/tlb.cc:424: warn: TLB Message - Read the value from CR2: 0xb0000
src/arch/x86/tlb.cc:505: warn: TLB Message - Resetting CR2 back to 0x0
.
src/arch/x86/faults.cc:177: warn: Looking up address for 0x7fff9232248c
src/arch/x86/faults.cc:184: warn: Adding to CR2 address 0xb1000
src/arch/x86/tlb.cc:424: warn: TLB Message - Read the value from CR2: 0xb1000
src/arch/x86/tlb.cc:505: warn: TLB Message - Resetting CR2 back to 0x0
.
src/arch/x86/faults.cc:177: warn: Looking up address for 0x7fff9235b4b0
src/arch/x86/faults.cc:184: warn: Adding to CR2 address 0xb2000
src/arch/x86/tlb.cc:424: warn: TLB Message - Read the value from CR2: 0xb2000
src/arch/x86/tlb.cc:447: warn: CR2 value used to avoid miss
src/arch/x86/tlb.cc:505: warn: TLB Message - Resetting CR2 back to 0x0
.
src/arch/x86/faults.cc:177: warn: Looking up address for 0x7fff92342fd0
src/arch/x86/faults.cc:184: warn: Adding to CR2 address 0xb3000
src/arch/x86/tlb.cc:424: warn: TLB Message - Read the value from CR2: 0xb3000
src/arch/x86/tlb.cc:447: warn: CR2 value used to avoid miss
src/arch/x86/tlb.cc:505: warn: TLB Message - Resetting CR2 back to 0x0
.
src/arch/x86/faults.cc:177: warn: Looking up address for 0x7fff92343000
src/arch/x86/faults.cc:184: warn: Adding to CR2 address 0xb4000
src/arch/x86/tlb.cc:424: warn: TLB Message - Read the value from CR2: 0xb4000
src/arch/x86/tlb.cc:505: warn: TLB Message - Resetting CR2 back to 0x0
.
src/arch/x86/faults.cc:177: warn: Looking up address for 0x7fff923561b0
src/arch/x86/faults.cc:184: warn: Adding to CR2 address 0xb5000
src/arch/x86/tlb.cc:424: warn: TLB Message - Read the value from CR2: 0xb5000
src/arch/x86/tlb.cc:447: warn: CR2 value used to avoid miss
src/arch/x86/tlb.cc:505: warn: TLB Message - Resetting CR2 back to 0x0
.
src/arch/x86/faults.cc:177: warn: Looking up address for 0x7fff9234b7b0
src/arch/x86/faults.cc:184: warn: Adding to CR2 address 0xb6000
src/arch/x86/tlb.cc:424: warn: TLB Message - Read the value from CR2: 0xb6000
src/arch/x86/tlb.cc:447: warn: CR2 value used to avoid miss
src/arch/x86/tlb.cc:505: warn: TLB Message - Resetting CR2 back to 0x0
.
src/arch/x86/faults.cc:177: warn: Looking up address for 0x7fff92359c00
src/arch/x86/faults.cc:184: warn: Adding to CR2 address 0xb7000
src/arch/x86/tlb.cc:424: warn: TLB Message - Read the value from CR2: 0xb7000
src/arch/x86/tlb.cc:447: warn: CR2 value used to avoid miss
src/arch/x86/tlb.cc:505: warn: TLB Message - Resetting CR2 back to 0x0
.
src/arch/x86/faults.cc:177: warn: Looking up address for 0x7fff9235d0f0
src/arch/x86/faults.cc:184: warn: Adding to CR2 address 0xb8000
src/arch/x86/tlb.cc:424: warn: TLB Message - Read the value from CR2: 0xb8000
src/arch/x86/tlb.cc:447: warn: CR2 value used to avoid miss
src/arch/x86/tlb.cc:505: warn: TLB Message - Resetting CR2 back to 0x0
.
src/arch/x86/faults.cc:177: warn: Looking up address for 0x7fff9235a110
src/arch/x86/faults.cc:184: warn: Adding to CR2 address 0xb9000
src/arch/x86/tlb.cc:424: warn: TLB Message - Read the value from CR2: 0xb9000
src/arch/x86/tlb.cc:447: warn: CR2 value used to avoid miss
src/arch/x86/tlb.cc:505: warn: TLB Message - Resetting CR2 back to 0x0
.
src/arch/x86/faults.cc:177: warn: Looking up address for 0x7fff92346d80
src/arch/x86/faults.cc:184: warn: Adding to CR2 address 0xba000
src/arch/x86/tlb.cc:424: warn: TLB Message - Read the value from CR2: 0xba000
src/arch/x86/tlb.cc:447: warn: CR2 value used to avoid miss
src/arch/x86/tlb.cc:505: warn: TLB Message - Resetting CR2 back to 0x0
.
src/arch/x86/faults.cc:177: warn: Looking up address for 0x7fff92341f60
src/arch/x86/faults.cc:184: warn: Adding to CR2 address 0xbb000
src/arch/x86/tlb.cc:424: warn: TLB Message - Read the value from CR2: 0xbb000
src/arch/x86/tlb.cc:447: warn: CR2 value used to avoid miss
src/arch/x86/tlb.cc:505: warn: TLB Message - Resetting CR2 back to 0x0
.
src/arch/x86/faults.cc:177: warn: Looking up address for 0x7fff9235c9c0
src/arch/x86/faults.cc:184: warn: Adding to CR2 address 0xbc000
src/arch/x86/tlb.cc:424: warn: TLB Message - Read the value from CR2: 0xbc000
src/arch/x86/tlb.cc:447: warn: CR2 value used to avoid miss
src/arch/x86/tlb.cc:505: warn: TLB Message - Resetting CR2 back to 0x0
.
src/arch/x86/faults.cc:177: warn: Looking up address for 0x7fff9234e000
src/arch/x86/faults.cc:184: warn: Adding to CR2 address 0xbd000
src/arch/x86/tlb.cc:424: warn: TLB Message - Read the value from CR2: 0xbd000
src/arch/x86/tlb.cc:447: warn: CR2 value used to avoid miss
src/arch/x86/tlb.cc:505: warn: TLB Message - Resetting CR2 back to 0x0
.
src/arch/x86/faults.cc:177: warn: Looking up address for 0x7fff923638e0
src/arch/x86/faults.cc:184: warn: Adding to CR2 address 0xbe000
src/arch/x86/tlb.cc:424: warn: TLB Message - Read the value from CR2: 0xbe000
src/arch/x86/tlb.cc:447: warn: CR2 value used to avoid miss
src/arch/x86/tlb.cc:505: warn: TLB Message - Resetting CR2 back to 0x0
.
src/sim/syscall_emul.cc:74: warn: ignoring syscall mprotect(...)
src/arch/x86/faults.cc:177: warn: Looking up address for 0x7fff9262d244
src/arch/x86/faults.cc:184: warn: Adding to CR2 address 0xbf000
src/arch/x86/tlb.cc:424: warn: TLB Message - Read the value from CR2: 0xbf000
src/arch/x86/tlb.cc:505: warn: TLB Message - Resetting CR2 back to 0x0
.
src/sim/syscall_emul.cc:74: warn: ignoring syscall mprotect(...)
src/arch/x86/faults.cc:177: warn: Looking up address for 0x7fff92872008
src/arch/x86/faults.cc:184: warn: Adding to CR2 address 0xc0000
src/arch/x86/tlb.cc:424: warn: TLB Message - Read the value from CR2: 0xc0000
src/arch/x86/tlb.cc:505: warn: TLB Message - Resetting CR2 back to 0x0
.
src/arch/x86/faults.cc:177: warn: Looking up address for 0x7fff92867880
src/arch/x86/faults.cc:184: warn: Adding to CR2 address 0xc1000
src/arch/x86/tlb.cc:424: warn: TLB Message - Read the value from CR2: 0xc1000
src/arch/x86/tlb.cc:505: warn: TLB Message - Resetting CR2 back to 0x0
.
src/arch/x86/faults.cc:177: warn: Looking up address for 0x7fff926c7000
src/arch/x86/faults.cc:184: warn: Adding to CR2 address 0xc2000
src/arch/x86/tlb.cc:424: warn: TLB Message - Read the value from CR2: 0xc2000
src/arch/x86/tlb.cc:505: warn: TLB Message - Resetting CR2 back to 0x0
.
src/arch/x86/faults.cc:177: warn: Looking up address for 0x7fff92868000
src/arch/x86/faults.cc:184: warn: Adding to CR2 address 0xc3000
src/arch/x86/tlb.cc:424: warn: TLB Message - Read the value from CR2: 0xc3000
src/arch/x86/tlb.cc:505: warn: TLB Message - Resetting CR2 back to 0x0
.
src/arch/x86/faults.cc:177: warn: Looking up address for 0x7fff926c8000
src/arch/x86/faults.cc:184: warn: Adding to CR2 address 0xc4000
src/arch/x86/tlb.cc:424: warn: TLB Message - Read the value from CR2: 0xc4000
src/arch/x86/tlb.cc:505: warn: TLB Message - Resetting CR2 back to 0x0
.
src/arch/x86/faults.cc:177: warn: Looking up address for 0x7fff926c9000
src/arch/x86/faults.cc:184: warn: Adding to CR2 address 0xc5000
src/arch/x86/tlb.cc:424: warn: TLB Message - Read the value from CR2: 0xc5000
src/arch/x86/tlb.cc:505: warn: TLB Message - Resetting CR2 back to 0x0
.
src/arch/x86/faults.cc:177: warn: Looking up address for 0x7fff92869008
src/arch/x86/faults.cc:184: warn: Adding to CR2 address 0xc6000
src/arch/x86/tlb.cc:424: warn: TLB Message - Read the value from CR2: 0xc6000
src/arch/x86/tlb.cc:505: warn: TLB Message - Resetting CR2 back to 0x0
.
src/arch/x86/faults.cc:177: warn: Looking up address for 0x7fff9286a4e0
src/arch/x86/faults.cc:184: warn: Adding to CR2 address 0xc7000
src/arch/x86/tlb.cc:424: warn: TLB Message - Read the value from CR2: 0xc7000
src/arch/x86/tlb.cc:505: warn: TLB Message - Resetting CR2 back to 0x0
.
src/arch/x86/faults.cc:177: warn: Looking up address for 0x7fff9286b318
src/arch/x86/faults.cc:184: warn: Adding to CR2 address 0xc8000
src/arch/x86/tlb.cc:424: warn: TLB Message - Read the value from CR2: 0xc8000
src/arch/x86/tlb.cc:505: warn: TLB Message - Resetting CR2 back to 0x0
.
src/arch/x86/faults.cc:177: warn: Looking up address for 0x7fff926ca000
src/arch/x86/faults.cc:184: warn: Adding to CR2 address 0xc9000
src/arch/x86/tlb.cc:424: warn: TLB Message - Read the value from CR2: 0xc9000
src/arch/x86/tlb.cc:505: warn: TLB Message - Resetting CR2 back to 0x0
.
src/arch/x86/faults.cc:177: warn: Looking up address for 0x7fff9286c008
src/arch/x86/faults.cc:184: warn: Adding to CR2 address 0xca000
src/arch/x86/tlb.cc:424: warn: TLB Message - Read the value from CR2: 0xca000
src/arch/x86/tlb.cc:505: warn: TLB Message - Resetting CR2 back to 0x0
.
src/arch/x86/faults.cc:177: warn: Looking up address for 0x7fff9286db68
src/arch/x86/faults.cc:184: warn: Adding to CR2 address 0xcb000
src/arch/x86/tlb.cc:424: warn: TLB Message - Read the value from CR2: 0xcb000
src/arch/x86/tlb.cc:505: warn: TLB Message - Resetting CR2 back to 0x0
.
src/arch/x86/faults.cc:177: warn: Looking up address for 0x7fff9286e038
src/arch/x86/faults.cc:184: warn: Adding to CR2 address 0xcc000
src/arch/x86/tlb.cc:424: warn: TLB Message - Read the value from CR2: 0xcc000
src/arch/x86/tlb.cc:505: warn: TLB Message - Resetting CR2 back to 0x0
.
src/arch/x86/faults.cc:177: warn: Looking up address for 0x7fff9286f5a0
src/arch/x86/faults.cc:184: warn: Adding to CR2 address 0xcd000
src/arch/x86/tlb.cc:424: warn: TLB Message - Read the value from CR2: 0xcd000
src/arch/x86/tlb.cc:505: warn: TLB Message - Resetting CR2 back to 0x0
.
src/arch/x86/faults.cc:177: warn: Looking up address for 0x7fff926cb000
src/arch/x86/faults.cc:184: warn: Adding to CR2 address 0xce000
src/arch/x86/tlb.cc:424: warn: TLB Message - Read the value from CR2: 0xce000
src/arch/x86/tlb.cc:505: warn: TLB Message - Resetting CR2 back to 0x0
.
src/arch/x86/faults.cc:177: warn: Looking up address for 0x7fff928716d0
src/arch/x86/faults.cc:184: warn: Adding to CR2 address 0xcf000
src/arch/x86/tlb.cc:424: warn: TLB Message - Read the value from CR2: 0xcf000
src/arch/x86/tlb.cc:505: warn: TLB Message - Resetting CR2 back to 0x0
.
src/arch/x86/faults.cc:177: warn: Looking up address for 0x7fff926c487a
src/arch/x86/faults.cc:184: warn: Adding to CR2 address 0xd0000
src/arch/x86/tlb.cc:424: warn: TLB Message - Read the value from CR2: 0xd0000
src/arch/x86/tlb.cc:505: warn: TLB Message - Resetting CR2 back to 0x0
.
src/arch/x86/faults.cc:177: warn: Looking up address for 0x7fff92666ffc
src/arch/x86/faults.cc:184: warn: Adding to CR2 address 0xd1000
src/arch/x86/tlb.cc:424: warn: TLB Message - Read the value from CR2: 0xd1000
src/arch/x86/tlb.cc:505: warn: TLB Message - Resetting CR2 back to 0x0
.
src/arch/x86/faults.cc:177: warn: Looking up address for 0x7fff92679fe7
src/arch/x86/faults.cc:184: warn: Adding to CR2 address 0xd2000
src/arch/x86/tlb.cc:424: warn: TLB Message - Read the value from CR2: 0xd2000
src/arch/x86/tlb.cc:505: warn: TLB Message - Resetting CR2 back to 0x0
.
src/arch/x86/faults.cc:177: warn: Looking up address for 0x7fff9267a000
src/arch/x86/faults.cc:184: warn: Adding to CR2 address 0xd3000
src/arch/x86/tlb.cc:424: warn: TLB Message - Read the value from CR2: 0xd3000
src/arch/x86/tlb.cc:505: warn: TLB Message - Resetting CR2 back to 0x0
.
src/arch/x86/faults.cc:177: warn: Looking up address for 0x7fff92667000
src/arch/x86/faults.cc:184: warn: Adding to CR2 address 0xd4000
src/arch/x86/tlb.cc:424: warn: TLB Message - Read the value from CR2: 0xd4000
src/arch/x86/tlb.cc:505: warn: TLB Message - Resetting CR2 back to 0x0
.
src/arch/x86/faults.cc:177: warn: Looking up address for 0x7fff926cc008
src/arch/x86/faults.cc:184: warn: Adding to CR2 address 0xd5000
src/arch/x86/tlb.cc:424: warn: TLB Message - Read the value from CR2: 0xd5000
src/arch/x86/tlb.cc:505: warn: TLB Message - Resetting CR2 back to 0x0
.
src/arch/x86/faults.cc:177: warn: Looking up address for 0x7fff926c515c
src/arch/x86/faults.cc:184: warn: Adding to CR2 address 0xd6000
src/arch/x86/tlb.cc:424: warn: TLB Message - Read the value from CR2: 0xd6000
src/arch/x86/tlb.cc:505: warn: TLB Message - Resetting CR2 back to 0x0
.
src/arch/x86/faults.cc:177: warn: Looking up address for 0x7fff9266da94
src/arch/x86/faults.cc:184: warn: Adding to CR2 address 0xd7000
src/arch/x86/tlb.cc:424: warn: TLB Message - Read the value from CR2: 0xd7000
src/arch/x86/tlb.cc:505: warn: TLB Message - Resetting CR2 back to 0x0
.
src/arch/x86/faults.cc:177: warn: Looking up address for 0x7fff9265b7c4
src/arch/x86/faults.cc:184: warn: Adding to CR2 address 0xd8000
src/arch/x86/tlb.cc:424: warn: TLB Message - Read the value from CR2: 0xd8000
src/arch/x86/tlb.cc:505: warn: TLB Message - Resetting CR2 back to 0x0
.
src/arch/x86/faults.cc:177: warn: Looking up address for 0x7fff926cd000
src/arch/x86/faults.cc:184: warn: Adding to CR2 address 0xd9000
src/arch/x86/tlb.cc:424: warn: TLB Message - Read the value from CR2: 0xd9000
src/arch/x86/tlb.cc:505: warn: TLB Message - Resetting CR2 back to 0x0
.
src/arch/x86/faults.cc:177: warn: Looking up address for 0x7fff92677d6c
src/arch/x86/faults.cc:184: warn: Adding to CR2 address 0xda000
src/arch/x86/tlb.cc:424: warn: TLB Message - Read the value from CR2: 0xda000
src/arch/x86/tlb.cc:505: warn: TLB Message - Resetting CR2 back to 0x0
.
src/arch/x86/faults.cc:177: warn: Looking up address for 0x7fff92662ed4
src/arch/x86/faults.cc:184: warn: Adding to CR2 address 0xdb000
src/arch/x86/tlb.cc:424: warn: TLB Message - Read the value from CR2: 0xdb000
src/arch/x86/tlb.cc:505: warn: TLB Message - Resetting CR2 back to 0x0
.
src/arch/x86/faults.cc:177: warn: Looking up address for 0x7fff9267242c
src/arch/x86/faults.cc:184: warn: Adding to CR2 address 0xdc000
src/arch/x86/tlb.cc:424: warn: TLB Message - Read the value from CR2: 0xdc000
src/arch/x86/tlb.cc:505: warn: TLB Message - Resetting CR2 back to 0x0
.
src/arch/x86/faults.cc:177: warn: Looking up address for 0x7fff9266429c
src/arch/x86/faults.cc:184: warn: Adding to CR2 address 0xdd000
src/arch/x86/tlb.cc:424: warn: TLB Message - Read the value from CR2: 0xdd000
src/arch/x86/tlb.cc:505: warn: TLB Message - Resetting CR2 back to 0x0
.
src/arch/x86/faults.cc:177: warn: Looking up address for 0x7fff92668c4c
src/arch/x86/faults.cc:184: warn: Adding to CR2 address 0xde000
src/arch/x86/tlb.cc:424: warn: TLB Message - Read the value from CR2: 0xde000
src/arch/x86/tlb.cc:505: warn: TLB Message - Resetting CR2 back to 0x0
.
src/arch/x86/faults.cc:177: warn: Looking up address for 0x7fff926565bc
src/arch/x86/faults.cc:184: warn: Adding to CR2 address 0xdf000
src/arch/x86/tlb.cc:424: warn: TLB Message - Read the value from CR2: 0xdf000
src/arch/x86/tlb.cc:505: warn: TLB Message - Resetting CR2 back to 0x0
.
src/arch/x86/faults.cc:177: warn: Looking up address for 0x7fff9265d63c
src/arch/x86/faults.cc:184: warn: Adding to CR2 address 0xe0000
src/arch/x86/tlb.cc:424: warn: TLB Message - Read the value from CR2: 0xe0000
src/arch/x86/tlb.cc:505: warn: TLB Message - Resetting CR2 back to 0x0
.
src/arch/x86/faults.cc:177: warn: Looking up address for 0x7fff92660024
src/arch/x86/faults.cc:184: warn: Adding to CR2 address 0xe1000
src/arch/x86/tlb.cc:424: warn: TLB Message - Read the value from CR2: 0xe1000
src/arch/x86/tlb.cc:505: warn: TLB Message - Resetting CR2 back to 0x0
.
src/arch/x86/faults.cc:177: warn: Looking up address for 0x7fff9266b904
src/arch/x86/faults.cc:184: warn: Adding to CR2 address 0xe2000
src/arch/x86/tlb.cc:424: warn: TLB Message - Read the value from CR2: 0xe2000
src/arch/x86/tlb.cc:505: warn: TLB Message - Resetting CR2 back to 0x0
.
src/arch/x86/faults.cc:177: warn: Looking up address for 0x7fff9265abac
src/arch/x86/faults.cc:184: warn: Adding to CR2 address 0xe3000
src/arch/x86/tlb.cc:424: warn: TLB Message - Read the value from CR2: 0xe3000
src/arch/x86/tlb.cc:505: warn: TLB Message - Resetting CR2 back to 0x0
.
src/arch/x86/faults.cc:177: warn: Looking up address for 0x7fff9265e9d4
src/arch/x86/faults.cc:184: warn: Adding to CR2 address 0xe4000
src/arch/x86/tlb.cc:424: warn: TLB Message - Read the value from CR2: 0xe4000
src/arch/x86/tlb.cc:505: warn: TLB Message - Resetting CR2 back to 0x0
.
src/arch/x86/faults.cc:177: warn: Looking up address for 0x7fff92673f2c
src/arch/x86/faults.cc:184: warn: Adding to CR2 address 0xe5000
src/arch/x86/tlb.cc:424: warn: TLB Message - Read the value from CR2: 0xe5000
src/arch/x86/tlb.cc:505: warn: TLB Message - Resetting CR2 back to 0x0
.
src/arch/x86/faults.cc:177: warn: Looking up address for 0x7fff9266159c
src/arch/x86/faults.cc:184: warn: Adding to CR2 address 0xe6000
src/arch/x86/tlb.cc:424: warn: TLB Message - Read the value from CR2: 0xe6000
src/arch/x86/tlb.cc:505: warn: TLB Message - Resetting CR2 back to 0x0
.
src/arch/x86/faults.cc:177: warn: Looking up address for 0x7fff92657d2c
src/arch/x86/faults.cc:184: warn: Adding to CR2 address 0xe7000
src/arch/x86/tlb.cc:424: warn: TLB Message - Read the value from CR2: 0xe7000
src/arch/x86/tlb.cc:505: warn: TLB Message - Resetting CR2 back to 0x0
.
src/arch/x86/faults.cc:177: warn: Looking up address for 0x7fff92663474
src/arch/x86/faults.cc:184: warn: Adding to CR2 address 0xe8000
src/arch/x86/tlb.cc:424: warn: TLB Message - Read the value from CR2: 0xe8000
src/arch/x86/tlb.cc:505: warn: TLB Message - Resetting CR2 back to 0x0
.
src/arch/x86/faults.cc:177: warn: Looking up address for 0x7fff92676a64
src/arch/x86/faults.cc:184: warn: Adding to CR2 address 0xe9000
src/arch/x86/tlb.cc:424: warn: TLB Message - Read the value from CR2: 0xe9000
src/arch/x86/tlb.cc:505: warn: TLB Message - Resetting CR2 back to 0x0
.
src/arch/x86/faults.cc:177: warn: Looking up address for 0x7fff92665d0c
src/arch/x86/faults.cc:184: warn: Adding to CR2 address 0xea000
src/arch/x86/tlb.cc:424: warn: TLB Message - Read the value from CR2: 0xea000
src/arch/x86/tlb.cc:505: warn: TLB Message - Resetting CR2 back to 0x0
.
src/arch/x86/faults.cc:177: warn: Looking up address for 0x7fff92678204
src/arch/x86/faults.cc:184: warn: Adding to CR2 address 0xeb000
src/arch/x86/tlb.cc:424: warn: TLB Message - Read the value from CR2: 0xeb000
src/arch/x86/tlb.cc:505: warn: TLB Message - Resetting CR2 back to 0x0
.
src/arch/x86/faults.cc:177: warn: Looking up address for 0x7fff926ce000
src/arch/x86/faults.cc:184: warn: Adding to CR2 address 0xec000
src/arch/x86/tlb.cc:424: warn: TLB Message - Read the value from CR2: 0xec000
src/arch/x86/tlb.cc:505: warn: TLB Message - Resetting CR2 back to 0x0
.
src/arch/x86/faults.cc:177: warn: Looking up address for 0x7fff926710ac
src/arch/x86/faults.cc:184: warn: Adding to CR2 address 0xed000
src/arch/x86/tlb.cc:424: warn: TLB Message - Read the value from CR2: 0xed000
src/arch/x86/tlb.cc:505: warn: TLB Message - Resetting CR2 back to 0x0
.
src/arch/x86/faults.cc:177: warn: Looking up address for 0x7fff926693cc
src/arch/x86/faults.cc:184: warn: Adding to CR2 address 0xee000
src/arch/x86/tlb.cc:424: warn: TLB Message - Read the value from CR2: 0xee000
src/arch/x86/tlb.cc:505: warn: TLB Message - Resetting CR2 back to 0x0
.
src/arch/x86/faults.cc:177: warn: Looking up address for 0x7fff9266ef94
src/arch/x86/faults.cc:184: warn: Adding to CR2 address 0xef000
src/arch/x86/tlb.cc:424: warn: TLB Message - Read the value from CR2: 0xef000
src/arch/x86/tlb.cc:505: warn: TLB Message - Resetting CR2 back to 0x0
.
src/arch/x86/faults.cc:177: warn: Looking up address for 0x7fff9265c0f4
src/arch/x86/faults.cc:184: warn: Adding to CR2 address 0xf0000
src/arch/x86/tlb.cc:424: warn: TLB Message - Read the value from CR2: 0xf0000
src/arch/x86/tlb.cc:505: warn: TLB Message - Resetting CR2 back to 0x0
.
src/arch/x86/faults.cc:177: warn: Looking up address for 0x7fff92675dbc
src/arch/x86/faults.cc:184: warn: Adding to CR2 address 0xf1000
src/arch/x86/tlb.cc:424: warn: TLB Message - Read the value from CR2: 0xf1000
src/arch/x86/tlb.cc:505: warn: TLB Message - Resetting CR2 back to 0x0
.
src/arch/x86/faults.cc:177: warn: Looking up address for 0x7fff92659bec
src/arch/x86/faults.cc:184: warn: Adding to CR2 address 0xf2000
src/arch/x86/tlb.cc:424: warn: TLB Message - Read the value from CR2: 0xf2000
src/arch/x86/tlb.cc:505: warn: TLB Message - Resetting CR2 back to 0x0
.
src/arch/x86/faults.cc:177: warn: Looking up address for 0x7fff9266a854
src/arch/x86/faults.cc:184: warn: Adding to CR2 address 0xf3000
src/arch/x86/tlb.cc:424: warn: TLB Message - Read the value from CR2: 0xf3000
src/arch/x86/tlb.cc:505: warn: TLB Message - Resetting CR2 back to 0x0
.
src/arch/x86/faults.cc:177: warn: Looking up address for 0x7fff9266c444
src/arch/x86/faults.cc:184: warn: Adding to CR2 address 0xf4000
src/arch/x86/tlb.cc:424: warn: TLB Message - Read the value from CR2: 0xf4000
src/arch/x86/tlb.cc:505: warn: TLB Message - Resetting CR2 back to 0x0
.
src/arch/x86/faults.cc:177: warn: Looking up address for 0x7fff92670eb4
src/arch/x86/faults.cc:184: warn: Adding to CR2 address 0xf5000
src/arch/x86/tlb.cc:424: warn: TLB Message - Read the value from CR2: 0xf5000
src/arch/x86/tlb.cc:505: warn: TLB Message - Resetting CR2 back to 0x0
.
src/arch/x86/faults.cc:177: warn: Looking up address for 0x7fff9267b0e9
src/arch/x86/faults.cc:184: warn: Adding to CR2 address 0xf6000
src/arch/x86/tlb.cc:424: warn: TLB Message - Read the value from CR2: 0xf6000
src/arch/x86/tlb.cc:505: warn: TLB Message - Resetting CR2 back to 0x0
.
src/arch/x86/faults.cc:177: warn: Looking up address for 0x7fff926cf008
src/arch/x86/faults.cc:184: warn: Adding to CR2 address 0xf7000
src/arch/x86/tlb.cc:424: warn: TLB Message - Read the value from CR2: 0xf7000
src/arch/x86/tlb.cc:505: warn: TLB Message - Resetting CR2 back to 0x0
.
src/arch/x86/faults.cc:177: warn: Looking up address for 0x7fff9267c215
src/arch/x86/faults.cc:184: warn: Adding to CR2 address 0xf8000
src/arch/x86/tlb.cc:424: warn: TLB Message - Read the value from CR2: 0xf8000
src/arch/x86/tlb.cc:505: warn: TLB Message - Resetting CR2 back to 0x0
.
src/arch/x86/faults.cc:177: warn: Looking up address for 0x7fff9266f4d4
src/arch/x86/faults.cc:184: warn: Adding to CR2 address 0xf9000
src/arch/x86/tlb.cc:424: warn: TLB Message - Read the value from CR2: 0xf9000
src/arch/x86/tlb.cc:505: warn: TLB Message - Resetting CR2 back to 0x0
.
src/arch/x86/faults.cc:177: warn: Looking up address for 0x7fff9267d348
src/arch/x86/faults.cc:184: warn: Adding to CR2 address 0xfa000
src/arch/x86/tlb.cc:424: warn: TLB Message - Read the value from CR2: 0xfa000
src/arch/x86/tlb.cc:505: warn: TLB Message - Resetting CR2 back to 0x0
.
src/arch/x86/faults.cc:177: warn: Looking up address for 0x7fff9265808c
src/arch/x86/faults.cc:184: warn: Adding to CR2 address 0xfb000
src/arch/x86/tlb.cc:424: warn: TLB Message - Read the value from CR2: 0xfb000
src/arch/x86/tlb.cc:505: warn: TLB Message - Resetting CR2 back to 0x0
.
src/arch/x86/faults.cc:177: warn: Looking up address for 0x7fff9265f214
src/arch/x86/faults.cc:184: warn: Adding to CR2 address 0xfc000
src/arch/x86/tlb.cc:424: warn: TLB Message - Read the value from CR2: 0xfc000
src/arch/x86/tlb.cc:505: warn: TLB Message - Resetting CR2 back to 0x0
.
src/arch/x86/faults.cc:177: warn: Looking up address for 0x7fff926d0000
src/arch/x86/faults.cc:184: warn: Adding to CR2 address 0xfd000
src/arch/x86/tlb.cc:424: warn: TLB Message - Read the value from CR2: 0xfd000
src/arch/x86/tlb.cc:505: warn: TLB Message - Resetting CR2 back to 0x0
.
src/arch/x86/faults.cc:177: warn: Looking up address for 0x7fff92674004
src/arch/x86/faults.cc:184: warn: Adding to CR2 address 0xfe000
src/arch/x86/tlb.cc:424: warn: TLB Message - Read the value from CR2: 0xfe000
src/arch/x86/tlb.cc:505: warn: TLB Message - Resetting CR2 back to 0x0
.
src/arch/x86/faults.cc:177: warn: Looking up address for 0x7fff9267e5dd
src/arch/x86/faults.cc:184: warn: Adding to CR2 address 0xff000
src/arch/x86/tlb.cc:424: warn: TLB Message - Read the value from CR2: 0xff000
src/arch/x86/tlb.cc:505: warn: TLB Message - Resetting CR2 back to 0x0
.
src/arch/x86/faults.cc:177: warn: Looking up address for 0x7fff9267f0b6
src/arch/x86/faults.cc:184: warn: Adding to CR2 address 0x100000
src/arch/x86/tlb.cc:424: warn: TLB Message - Read the value from CR2: 0x100000
src/arch/x86/tlb.cc:505: warn: TLB Message - Resetting CR2 back to 0x0
.
src/arch/x86/faults.cc:177: warn: Looking up address for 0x7fff923192c8
src/arch/x86/faults.cc:184: warn: Adding to CR2 address 0x101000
src/arch/x86/tlb.cc:424: warn: TLB Message - Read the value from CR2: 0x101000
src/arch/x86/tlb.cc:505: warn: TLB Message - Resetting CR2 back to 0x0
.
src/arch/x86/faults.cc:177: warn: Looking up address for 0x7fff92680000
src/arch/x86/faults.cc:184: warn: Adding to CR2 address 0x102000
src/arch/x86/tlb.cc:424: warn: TLB Message - Read the value from CR2: 0x102000
src/arch/x86/tlb.cc:505: warn: TLB Message - Resetting CR2 back to 0x0
.
src/arch/x86/faults.cc:177: warn: Looking up address for 0x7fff926d1000
src/arch/x86/faults.cc:184: warn: Adding to CR2 address 0x103000
src/arch/x86/tlb.cc:424: warn: TLB Message - Read the value from CR2: 0x103000
src/arch/x86/tlb.cc:505: warn: TLB Message - Resetting CR2 back to 0x0
.
src/arch/x86/faults.cc:177: warn: Looking up address for 0x7fff92655088
src/arch/x86/faults.cc:184: warn: Adding to CR2 address 0x104000
src/arch/x86/tlb.cc:424: warn: TLB Message - Read the value from CR2: 0x104000
src/arch/x86/tlb.cc:505: warn: TLB Message - Resetting CR2 back to 0x0
.
src/arch/x86/faults.cc:177: warn: Looking up address for 0x7fff92681516
src/arch/x86/faults.cc:184: warn: Adding to CR2 address 0x105000
src/arch/x86/tlb.cc:424: warn: TLB Message - Read the value from CR2: 0x105000
src/arch/x86/tlb.cc:505: warn: TLB Message - Resetting CR2 back to 0x0
.
src/arch/x86/faults.cc:177: warn: Looking up address for 0x7fff926d2008
src/arch/x86/faults.cc:184: warn: Adding to CR2 address 0x106000
src/arch/x86/tlb.cc:424: warn: TLB Message - Read the value from CR2: 0x106000
src/arch/x86/tlb.cc:505: warn: TLB Message - Resetting CR2 back to 0x0
.
src/arch/x86/faults.cc:177: warn: Looking up address for 0x7fff9268224f
src/arch/x86/faults.cc:184: warn: Adding to CR2 address 0x107000
src/arch/x86/tlb.cc:424: warn: TLB Message - Read the value from CR2: 0x107000
src/arch/x86/tlb.cc:505: warn: TLB Message - Resetting CR2 back to 0x0
.
src/arch/x86/faults.cc:177: warn: Looking up address for 0x7fff92685d9f
src/arch/x86/faults.cc:184: warn: Adding to CR2 address 0x108000
src/arch/x86/tlb.cc:424: warn: TLB Message - Read the value from CR2: 0x108000
src/arch/x86/tlb.cc:505: warn: TLB Message - Resetting CR2 back to 0x0
.
src/arch/x86/faults.cc:177: warn: Looking up address for 0x7fff926d3000
src/arch/x86/faults.cc:184: warn: Adding to CR2 address 0x109000
src/arch/x86/tlb.cc:424: warn: TLB Message - Read the value from CR2: 0x109000
src/arch/x86/tlb.cc:505: warn: TLB Message - Resetting CR2 back to 0x0
.
src/arch/x86/faults.cc:177: warn: Looking up address for 0x7fff92686000
src/arch/x86/faults.cc:184: warn: Adding to CR2 address 0x10a000
src/arch/x86/tlb.cc:424: warn: TLB Message - Read the value from CR2: 0x10a000
src/arch/x86/tlb.cc:505: warn: TLB Message - Resetting CR2 back to 0x0
.
src/arch/x86/faults.cc:177: warn: Looking up address for 0x7fff92684c6d
src/arch/x86/faults.cc:184: warn: Adding to CR2 address 0x10b000
src/arch/x86/tlb.cc:424: warn: TLB Message - Read the value from CR2: 0x10b000
src/arch/x86/tlb.cc:505: warn: TLB Message - Resetting CR2 back to 0x0
.
src/arch/x86/faults.cc:177: warn: Looking up address for 0x7fff926d4000
src/arch/x86/faults.cc:184: warn: Adding to CR2 address 0x10c000
src/arch/x86/tlb.cc:424: warn: TLB Message - Read the value from CR2: 0x10c000
src/arch/x86/tlb.cc:505: warn: TLB Message - Resetting CR2 back to 0x0
.
src/arch/x86/faults.cc:177: warn: Looking up address for 0x7fff9268735d
src/arch/x86/faults.cc:184: warn: Adding to CR2 address 0x10d000
src/arch/x86/tlb.cc:424: warn: TLB Message - Read the value from CR2: 0x10d000
src/arch/x86/tlb.cc:505: warn: TLB Message - Resetting CR2 back to 0x0
.
src/arch/x86/faults.cc:177: warn: Looking up address for 0x7fff9268830b
src/arch/x86/faults.cc:184: warn: Adding to CR2 address 0x10e000
src/arch/x86/tlb.cc:424: warn: TLB Message - Read the value from CR2: 0x10e000
src/arch/x86/tlb.cc:505: warn: TLB Message - Resetting CR2 back to 0x0
.
src/arch/x86/faults.cc:177: warn: Looking up address for 0x7fff9268dab0
src/arch/x86/faults.cc:184: warn: Adding to CR2 address 0x10f000
src/arch/x86/tlb.cc:424: warn: TLB Message - Read the value from CR2: 0x10f000
src/arch/x86/tlb.cc:505: warn: TLB Message - Resetting CR2 back to 0x0
.
src/arch/x86/faults.cc:177: warn: Looking up address for 0x7fff9268e338
src/arch/x86/faults.cc:184: warn: Adding to CR2 address 0x110000
src/arch/x86/tlb.cc:424: warn: TLB Message - Read the value from CR2: 0x110000
src/arch/x86/tlb.cc:505: warn: TLB Message - Resetting CR2 back to 0x0
.
src/arch/x86/faults.cc:177: warn: Looking up address for 0x7fff926d5008
src/arch/x86/faults.cc:184: warn: Adding to CR2 address 0x111000
src/arch/x86/tlb.cc:424: warn: TLB Message - Read the value from CR2: 0x111000
src/arch/x86/tlb.cc:505: warn: TLB Message - Resetting CR2 back to 0x0
.
src/arch/x86/faults.cc:177: warn: Looking up address for 0x7fff926d6000
src/arch/x86/faults.cc:184: warn: Adding to CR2 address 0x112000
src/arch/x86/tlb.cc:424: warn: TLB Message - Read the value from CR2: 0x112000
src/arch/x86/tlb.cc:505: warn: TLB Message - Resetting CR2 back to 0x0
.
src/arch/x86/faults.cc:177: warn: Looking up address for 0x7fff9268f0d6
src/arch/x86/faults.cc:184: warn: Adding to CR2 address 0x113000
src/arch/x86/tlb.cc:424: warn: TLB Message - Read the value from CR2: 0x113000
src/arch/x86/tlb.cc:505: warn: TLB Message - Resetting CR2 back to 0x0
.
src/arch/x86/faults.cc:177: warn: Looking up address for 0x7fff926d7000
src/arch/x86/faults.cc:184: warn: Adding to CR2 address 0x114000
src/arch/x86/tlb.cc:424: warn: TLB Message - Read the value from CR2: 0x114000
src/arch/x86/tlb.cc:505: warn: TLB Message - Resetting CR2 back to 0x0
.
src/arch/x86/faults.cc:177: warn: Looking up address for 0x7fff926905b2
src/arch/x86/faults.cc:184: warn: Adding to CR2 address 0x115000
src/arch/x86/tlb.cc:424: warn: TLB Message - Read the value from CR2: 0x115000
src/arch/x86/tlb.cc:505: warn: TLB Message - Resetting CR2 back to 0x0
.
src/arch/x86/faults.cc:177: warn: Looking up address for 0x7fff92693b96
src/arch/x86/faults.cc:184: warn: Adding to CR2 address 0x116000
src/arch/x86/tlb.cc:424: warn: TLB Message - Read the value from CR2: 0x116000
src/arch/x86/tlb.cc:505: warn: TLB Message - Resetting CR2 back to 0x0
.
src/arch/x86/faults.cc:177: warn: Looking up address for 0x7fff926d8008
src/arch/x86/faults.cc:184: warn: Adding to CR2 address 0x117000
src/arch/x86/tlb.cc:424: warn: TLB Message - Read the value from CR2: 0x117000
src/arch/x86/tlb.cc:505: warn: TLB Message - Resetting CR2 back to 0x0
.
src/arch/x86/faults.cc:177: warn: Looking up address for 0x7fff926910e5
src/arch/x86/faults.cc:184: warn: Adding to CR2 address 0x118000
src/arch/x86/tlb.cc:424: warn: TLB Message - Read the value from CR2: 0x118000
src/arch/x86/tlb.cc:505: warn: TLB Message - Resetting CR2 back to 0x0
.
src/arch/x86/faults.cc:177: warn: Looking up address for 0x7fff92694000
src/arch/x86/faults.cc:184: warn: Adding to CR2 address 0x119000
src/arch/x86/tlb.cc:424: warn: TLB Message - Read the value from CR2: 0x119000
src/arch/x86/tlb.cc:505: warn: TLB Message - Resetting CR2 back to 0x0
.
src/arch/x86/faults.cc:177: warn: Looking up address for 0x7fff92692d6a
src/arch/x86/faults.cc:184: warn: Adding to CR2 address 0x11a000
src/arch/x86/tlb.cc:424: warn: TLB Message - Read the value from CR2: 0x11a000
src/arch/x86/tlb.cc:505: warn: TLB Message - Resetting CR2 back to 0x0
.
src/arch/x86/faults.cc:177: warn: Looking up address for 0x7fff9269aec6
src/arch/x86/faults.cc:184: warn: Adding to CR2 address 0x11b000
src/arch/x86/tlb.cc:424: warn: TLB Message - Read the value from CR2: 0x11b000
src/arch/x86/tlb.cc:505: warn: TLB Message - Resetting CR2 back to 0x0
.
src/arch/x86/faults.cc:177: warn: Looking up address for 0x7fff9269b005
src/arch/x86/faults.cc:184: warn: Adding to CR2 address 0x11c000
src/arch/x86/tlb.cc:424: warn: TLB Message - Read the value from CR2: 0x11c000
src/arch/x86/tlb.cc:505: warn: TLB Message - Resetting CR2 back to 0x0
.
src/arch/x86/faults.cc:177: warn: Looking up address for 0x7fff92697fa3
src/arch/x86/faults.cc:184: warn: Adding to CR2 address 0x11d000
src/arch/x86/tlb.cc:424: warn: TLB Message - Read the value from CR2: 0x11d000
src/arch/x86/tlb.cc:505: warn: TLB Message - Resetting CR2 back to 0x0
.
src/arch/x86/faults.cc:177: warn: Looking up address for 0x7fff926980fa
src/arch/x86/faults.cc:184: warn: Adding to CR2 address 0x11e000
src/arch/x86/tlb.cc:424: warn: TLB Message - Read the value from CR2: 0x11e000
src/arch/x86/tlb.cc:505: warn: TLB Message - Resetting CR2 back to 0x0
.
src/arch/x86/faults.cc:177: warn: Looking up address for 0x7fff926d9000
src/arch/x86/faults.cc:184: warn: Adding to CR2 address 0x11f000
src/arch/x86/tlb.cc:424: warn: TLB Message - Read the value from CR2: 0x11f000
src/arch/x86/tlb.cc:505: warn: TLB Message - Resetting CR2 back to 0x0
.
src/arch/x86/faults.cc:177: warn: Looking up address for 0x7fff92699d9c
src/arch/x86/faults.cc:184: warn: Adding to CR2 address 0x120000
src/arch/x86/tlb.cc:424: warn: TLB Message - Read the value from CR2: 0x120000
src/arch/x86/tlb.cc:505: warn: TLB Message - Resetting CR2 back to 0x0
.
src/arch/x86/faults.cc:177: warn: Looking up address for 0x7fff9269e770
src/arch/x86/faults.cc:184: warn: Adding to CR2 address 0x121000
src/arch/x86/tlb.cc:424: warn: TLB Message - Read the value from CR2: 0x121000
src/arch/x86/tlb.cc:505: warn: TLB Message - Resetting CR2 back to 0x0
.
src/arch/x86/faults.cc:177: warn: Looking up address for 0x7fff9269c1fc
src/arch/x86/faults.cc:184: warn: Adding to CR2 address 0x122000
src/arch/x86/tlb.cc:424: warn: TLB Message - Read the value from CR2: 0x122000
src/arch/x86/tlb.cc:505: warn: TLB Message - Resetting CR2 back to 0x0
.
src/arch/x86/faults.cc:177: warn: Looking up address for 0x7fff9269d81f
src/arch/x86/faults.cc:184: warn: Adding to CR2 address 0x123000
src/arch/x86/tlb.cc:424: warn: TLB Message - Read the value from CR2: 0x123000
src/arch/x86/tlb.cc:505: warn: TLB Message - Resetting CR2 back to 0x0
.
src/arch/x86/faults.cc:177: warn: Looking up address for 0x7fff9269f76a
src/arch/x86/faults.cc:184: warn: Adding to CR2 address 0x124000
src/arch/x86/tlb.cc:424: warn: TLB Message - Read the value from CR2: 0x124000
src/arch/x86/tlb.cc:505: warn: TLB Message - Resetting CR2 back to 0x0
.
src/arch/x86/faults.cc:177: warn: Looking up address for 0x7fff926da000
src/arch/x86/faults.cc:184: warn: Adding to CR2 address 0x125000
src/arch/x86/tlb.cc:424: warn: TLB Message - Read the value from CR2: 0x125000
src/arch/x86/tlb.cc:505: warn: TLB Message - Resetting CR2 back to 0x0
.
src/arch/x86/faults.cc:177: warn: Looking up address for 0x7fff926a23ec
src/arch/x86/faults.cc:184: warn: Adding to CR2 address 0x126000
src/arch/x86/tlb.cc:424: warn: TLB Message - Read the value from CR2: 0x126000
src/arch/x86/tlb.cc:505: warn: TLB Message - Resetting CR2 back to 0x0
.
src/arch/x86/faults.cc:177: warn: Looking up address for 0x7fff926a13f8
src/arch/x86/faults.cc:184: warn: Adding to CR2 address 0x127000
src/arch/x86/tlb.cc:424: warn: TLB Message - Read the value from CR2: 0x127000
src/arch/x86/tlb.cc:505: warn: TLB Message - Resetting CR2 back to 0x0
.
src/arch/x86/faults.cc:177: warn: Looking up address for 0x7fff926a3479
src/arch/x86/faults.cc:184: warn: Adding to CR2 address 0x128000
src/arch/x86/tlb.cc:424: warn: TLB Message - Read the value from CR2: 0x128000
src/arch/x86/tlb.cc:505: warn: TLB Message - Resetting CR2 back to 0x0
.
src/arch/x86/faults.cc:177: warn: Looking up address for 0x7fff926a4f6b
src/arch/x86/faults.cc:184: warn: Adding to CR2 address 0x129000
src/arch/x86/tlb.cc:424: warn: TLB Message - Read the value from CR2: 0x129000
src/arch/x86/tlb.cc:505: warn: TLB Message - Resetting CR2 back to 0x0
.
src/arch/x86/faults.cc:177: warn: Looking up address for 0x7fff926db008
src/arch/x86/faults.cc:184: warn: Adding to CR2 address 0x12a000
src/arch/x86/tlb.cc:424: warn: TLB Message - Read the value from CR2: 0x12a000
src/arch/x86/tlb.cc:505: warn: TLB Message - Resetting CR2 back to 0x0
.
src/arch/x86/faults.cc:177: warn: Looking up address for 0x7fff926a9b96
src/arch/x86/faults.cc:184: warn: Adding to CR2 address 0x12b000
src/arch/x86/tlb.cc:424: warn: TLB Message - Read the value from CR2: 0x12b000
src/arch/x86/tlb.cc:505: warn: TLB Message - Resetting CR2 back to 0x0
.
src/arch/x86/faults.cc:177: warn: Looking up address for 0x7fff926a7c06
src/arch/x86/faults.cc:184: warn: Adding to CR2 address 0x12c000
src/arch/x86/tlb.cc:424: warn: TLB Message - Read the value from CR2: 0x12c000
src/arch/x86/tlb.cc:505: warn: TLB Message - Resetting CR2 back to 0x0
.
src/arch/x86/faults.cc:177: warn: Looking up address for 0x7fff926aa000
src/arch/x86/faults.cc:184: warn: Adding to CR2 address 0x12d000
src/arch/x86/tlb.cc:424: warn: TLB Message - Read the value from CR2: 0x12d000
src/arch/x86/tlb.cc:505: warn: TLB Message - Resetting CR2 back to 0x0
.
src/arch/x86/faults.cc:177: warn: Looking up address for 0x7fff926a5883
src/arch/x86/faults.cc:184: warn: Adding to CR2 address 0x12e000
src/arch/x86/tlb.cc:424: warn: TLB Message - Read the value from CR2: 0x12e000
src/arch/x86/tlb.cc:505: warn: TLB Message - Resetting CR2 back to 0x0
.
src/arch/x86/faults.cc:177: warn: Looking up address for 0x7fff926a89a8
src/arch/x86/faults.cc:184: warn: Adding to CR2 address 0x12f000
src/arch/x86/tlb.cc:424: warn: TLB Message - Read the value from CR2: 0x12f000
src/arch/x86/tlb.cc:505: warn: TLB Message - Resetting CR2 back to 0x0
.
src/arch/x86/faults.cc:177: warn: Looking up address for 0x7fff926ab65f
src/arch/x86/faults.cc:184: warn: Adding to CR2 address 0x130000
src/arch/x86/tlb.cc:424: warn: TLB Message - Read the value from CR2: 0x130000
src/arch/x86/tlb.cc:505: warn: TLB Message - Resetting CR2 back to 0x0
.
src/arch/x86/faults.cc:177: warn: Looking up address for 0x7fff926aea7d
src/arch/x86/faults.cc:184: warn: Adding to CR2 address 0x131000
src/arch/x86/tlb.cc:424: warn: TLB Message - Read the value from CR2: 0x131000
src/arch/x86/tlb.cc:505: warn: TLB Message - Resetting CR2 back to 0x0
.
src/arch/x86/faults.cc:177: warn: Looking up address for 0x7fff926ac3bf
src/arch/x86/faults.cc:184: warn: Adding to CR2 address 0x132000
src/arch/x86/tlb.cc:424: warn: TLB Message - Read the value from CR2: 0x132000
src/arch/x86/tlb.cc:505: warn: TLB Message - Resetting CR2 back to 0x0
.
src/arch/x86/faults.cc:177: warn: Looking up address for 0x7fff926dc000
src/arch/x86/faults.cc:184: warn: Adding to CR2 address 0x133000
src/arch/x86/tlb.cc:424: warn: TLB Message - Read the value from CR2: 0x133000
src/arch/x86/tlb.cc:505: warn: TLB Message - Resetting CR2 back to 0x0
.
src/arch/x86/faults.cc:177: warn: Looking up address for 0x7fff926ad8ab
src/arch/x86/faults.cc:184: warn: Adding to CR2 address 0x134000
src/arch/x86/tlb.cc:424: warn: TLB Message - Read the value from CR2: 0x134000
src/arch/x86/tlb.cc:505: warn: TLB Message - Resetting CR2 back to 0x0
.
src/arch/x86/faults.cc:177: warn: Looking up address for 0x7fff926b0179
src/arch/x86/faults.cc:184: warn: Adding to CR2 address 0x135000
src/arch/x86/tlb.cc:424: warn: TLB Message - Read the value from CR2: 0x135000
src/arch/x86/tlb.cc:505: warn: TLB Message - Resetting CR2 back to 0x0
.
src/arch/x86/faults.cc:177: warn: Looking up address for 0x7fff926af1cd
src/arch/x86/faults.cc:184: warn: Adding to CR2 address 0x136000
src/arch/x86/tlb.cc:424: warn: TLB Message - Read the value from CR2: 0x136000
src/arch/x86/tlb.cc:505: warn: TLB Message - Resetting CR2 back to 0x0
.
src/arch/x86/faults.cc:177: warn: Looking up address for 0x7fff926b82fd
src/arch/x86/faults.cc:184: warn: Adding to CR2 address 0x137000
src/arch/x86/tlb.cc:424: warn: TLB Message - Read the value from CR2: 0x137000
src/arch/x86/tlb.cc:505: warn: TLB Message - Resetting CR2 back to 0x0
.
src/arch/x86/faults.cc:177: warn: Looking up address for 0x7fff926b6341
src/arch/x86/faults.cc:184: warn: Adding to CR2 address 0x138000
src/arch/x86/tlb.cc:424: warn: TLB Message - Read the value from CR2: 0x138000
src/arch/x86/tlb.cc:505: warn: TLB Message - Resetting CR2 back to 0x0
.
src/arch/x86/faults.cc:177: warn: Looking up address for 0x7fff926b3f74
src/arch/x86/faults.cc:184: warn: Adding to CR2 address 0x139000
src/arch/x86/tlb.cc:424: warn: TLB Message - Read the value from CR2: 0x139000
src/arch/x86/tlb.cc:505: warn: TLB Message - Resetting CR2 back to 0x0
.
src/arch/x86/faults.cc:177: warn: Looking up address for 0x7fff926b415d
src/arch/x86/faults.cc:184: warn: Adding to CR2 address 0x13a000
src/arch/x86/tlb.cc:424: warn: TLB Message - Read the value from CR2: 0x13a000
src/arch/x86/tlb.cc:505: warn: TLB Message - Resetting CR2 back to 0x0
.
src/arch/x86/faults.cc:177: warn: Looking up address for 0x7fff926b7104
src/arch/x86/faults.cc:184: warn: Adding to CR2 address 0x13b000
src/arch/x86/tlb.cc:424: warn: TLB Message - Read the value from CR2: 0x13b000
src/arch/x86/tlb.cc:505: warn: TLB Message - Resetting CR2 back to 0x0
.
src/arch/x86/faults.cc:177: warn: Looking up address for 0x7fff926dd000
src/arch/x86/faults.cc:184: warn: Adding to CR2 address 0x13c000
src/arch/x86/tlb.cc:424: warn: TLB Message - Read the value from CR2: 0x13c000
src/arch/x86/tlb.cc:505: warn: TLB Message - Resetting CR2 back to 0x0
.
src/arch/x86/faults.cc:177: warn: Looking up address for 0x7fff926bbfa3
src/arch/x86/faults.cc:184: warn: Adding to CR2 address 0x13d000
src/arch/x86/tlb.cc:424: warn: TLB Message - Read the value from CR2: 0x13d000
src/arch/x86/tlb.cc:505: warn: TLB Message - Resetting CR2 back to 0x0
.
src/arch/x86/faults.cc:177: warn: Looking up address for 0x7fff926bca59
src/arch/x86/faults.cc:184: warn: Adding to CR2 address 0x13e000
src/arch/x86/tlb.cc:424: warn: TLB Message - Read the value from CR2: 0x13e000
src/arch/x86/tlb.cc:505: warn: TLB Message - Resetting CR2 back to 0x0
.
src/arch/x86/faults.cc:177: warn: Looking up address for 0x7fff926be321
src/arch/x86/faults.cc:184: warn: Adding to CR2 address 0x13f000
src/arch/x86/tlb.cc:424: warn: TLB Message - Read the value from CR2: 0x13f000
src/arch/x86/tlb.cc:505: warn: TLB Message - Resetting CR2 back to 0x0
.
src/arch/x86/faults.cc:177: warn: Looking up address for 0x7fff926bf3f2
src/arch/x86/faults.cc:184: warn: Adding to CR2 address 0x140000
src/arch/x86/tlb.cc:424: warn: TLB Message - Read the value from CR2: 0x140000
src/arch/x86/tlb.cc:505: warn: TLB Message - Resetting CR2 back to 0x0
.
src/arch/x86/faults.cc:177: warn: Looking up address for 0x7fff926c0946
src/arch/x86/faults.cc:184: warn: Adding to CR2 address 0x141000
src/arch/x86/tlb.cc:424: warn: TLB Message - Read the value from CR2: 0x141000
src/arch/x86/tlb.cc:505: warn: TLB Message - Resetting CR2 back to 0x0
.
src/arch/x86/faults.cc:177: warn: Looking up address for 0x7fff9231a6e8
src/arch/x86/faults.cc:184: warn: Adding to CR2 address 0x142000
src/arch/x86/tlb.cc:424: warn: TLB Message - Read the value from CR2: 0x142000
src/arch/x86/tlb.cc:505: warn: TLB Message - Resetting CR2 back to 0x0
.
src/arch/x86/faults.cc:177: warn: Looking up address for 0x7fff926de008
src/arch/x86/faults.cc:184: warn: Adding to CR2 address 0x143000
src/arch/x86/tlb.cc:424: warn: TLB Message - Read the value from CR2: 0x143000
src/arch/x86/tlb.cc:505: warn: TLB Message - Resetting CR2 back to 0x0
.
src/arch/x86/faults.cc:177: warn: Looking up address for 0x7fff926b5b68
src/arch/x86/faults.cc:184: warn: Adding to CR2 address 0x144000
src/arch/x86/tlb.cc:424: warn: TLB Message - Read the value from CR2: 0x144000
src/arch/x86/tlb.cc:505: warn: TLB Message - Resetting CR2 back to 0x0
.
src/arch/x86/faults.cc:177: warn: Looking up address for 0x7fff926df010
src/arch/x86/faults.cc:184: warn: Adding to CR2 address 0x145000
src/arch/x86/tlb.cc:424: warn: TLB Message - Read the value from CR2: 0x145000
src/arch/x86/tlb.cc:505: warn: TLB Message - Resetting CR2 back to 0x0
.
src/arch/x86/faults.cc:177: warn: Looking up address for 0x7fff926e0000
src/arch/x86/faults.cc:184: warn: Adding to CR2 address 0x146000
src/arch/x86/tlb.cc:424: warn: TLB Message - Read the value from CR2: 0x146000
src/arch/x86/tlb.cc:505: warn: TLB Message - Resetting CR2 back to 0x0
.
src/arch/x86/faults.cc:177: warn: Looking up address for 0x7fff926e1008
src/arch/x86/faults.cc:184: warn: Adding to CR2 address 0x147000
src/arch/x86/tlb.cc:424: warn: TLB Message - Read the value from CR2: 0x147000
src/arch/x86/tlb.cc:505: warn: TLB Message - Resetting CR2 back to 0x0
.
src/arch/x86/faults.cc:177: warn: Looking up address for 0x7fff92873000
src/arch/x86/faults.cc:184: warn: Adding to CR2 address 0x148000
src/arch/x86/tlb.cc:424: warn: TLB Message - Read the value from CR2: 0x148000
src/arch/x86/tlb.cc:505: warn: TLB Message - Resetting CR2 back to 0x0
.
src/arch/x86/faults.cc:177: warn: Looking up address for 0x7fff926e2010
src/arch/x86/faults.cc:184: warn: Adding to CR2 address 0x149000
src/arch/x86/tlb.cc:424: warn: TLB Message - Read the value from CR2: 0x149000
src/arch/x86/tlb.cc:505: warn: TLB Message - Resetting CR2 back to 0x0
.
src/arch/x86/faults.cc:177: warn: Looking up address for 0x7fff926e3000
src/arch/x86/faults.cc:184: warn: Adding to CR2 address 0x14a000
src/arch/x86/tlb.cc:424: warn: TLB Message - Read the value from CR2: 0x14a000
src/arch/x86/tlb.cc:505: warn: TLB Message - Resetting CR2 back to 0x0
.
src/arch/x86/faults.cc:177: warn: Looking up address for 0x7fff926e4008
src/arch/x86/faults.cc:184: warn: Adding to CR2 address 0x14b000
src/arch/x86/tlb.cc:424: warn: TLB Message - Read the value from CR2: 0x14b000
src/arch/x86/tlb.cc:505: warn: TLB Message - Resetting CR2 back to 0x0
.
src/arch/x86/faults.cc:177: warn: Looking up address for 0x7fff926e5010
src/arch/x86/faults.cc:184: warn: Adding to CR2 address 0x14c000
src/arch/x86/tlb.cc:424: warn: TLB Message - Read the value from CR2: 0x14c000
src/arch/x86/tlb.cc:505: warn: TLB Message - Resetting CR2 back to 0x0
.
src/sim/syscall_emul.cc:74: warn: ignoring syscall mprotect(...)
src/arch/x86/faults.cc:177: warn: Looking up address for 0x7fff92875540
src/arch/x86/faults.cc:184: warn: Adding to CR2 address 0x14d000
src/arch/x86/tlb.cc:424: warn: TLB Message - Read the value from CR2: 0x14d000
src/arch/x86/tlb.cc:505: warn: TLB Message - Resetting CR2 back to 0x0
.
src/arch/x86/faults.cc:177: warn: Looking up address for 0x7fff9240f7ae
src/arch/x86/faults.cc:184: warn: Adding to CR2 address 0x14e000
src/arch/x86/tlb.cc:424: warn: TLB Message - Read the value from CR2: 0x14e000
src/arch/x86/tlb.cc:505: warn: TLB Message - Resetting CR2 back to 0x0
.
src/sim/syscall_emul.cc:74: warn: ignoring syscall mprotect(...)
src/sim/syscall_emul.cc:74: warn: ignoring syscall mprotect(...)
src/arch/x86/faults.cc:177: warn: Looking up address for 0x7fff92579940
src/arch/x86/faults.cc:184: warn: Adding to CR2 address 0x14f000
src/arch/x86/tlb.cc:424: warn: TLB Message - Read the value from CR2: 0x14f000
src/arch/x86/tlb.cc:447: warn: CR2 value used to avoid miss
src/arch/x86/tlb.cc:505: warn: TLB Message - Resetting CR2 back to 0x0
.
src/arch/x86/faults.cc:177: warn: Looking up address for 0x7fff9243e3c0
src/arch/x86/faults.cc:184: warn: Adding to CR2 address 0x150000
src/arch/x86/tlb.cc:424: warn: TLB Message - Read the value from CR2: 0x150000
src/arch/x86/tlb.cc:447: warn: CR2 value used to avoid miss
src/arch/x86/tlb.cc:505: warn: TLB Message - Resetting CR2 back to 0x0
.
src/arch/x86/faults.cc:177: warn: Looking up address for 0x7fff9262be4e
src/arch/x86/faults.cc:184: warn: Adding to CR2 address 0x151000
src/arch/x86/tlb.cc:424: warn: TLB Message - Read the value from CR2: 0x151000
src/arch/x86/tlb.cc:505: warn: TLB Message - Resetting CR2 back to 0x0
.
src/arch/x86/faults.cc:177: warn: Looking up address for 0x7fff926254b8
src/arch/x86/faults.cc:184: warn: Adding to CR2 address 0x152000
src/arch/x86/tlb.cc:424: warn: TLB Message - Read the value from CR2: 0x152000
src/arch/x86/tlb.cc:505: warn: TLB Message - Resetting CR2 back to 0x0
.
src/arch/x86/faults.cc:177: warn: Looking up address for 0x7fff9251e0e0
src/arch/x86/faults.cc:184: warn: Adding to CR2 address 0x153000
src/arch/x86/tlb.cc:424: warn: TLB Message - Read the value from CR2: 0x153000
src/arch/x86/tlb.cc:447: warn: CR2 value used to avoid miss
src/arch/x86/tlb.cc:505: warn: TLB Message - Resetting CR2 back to 0x0
.
[...]
src/arch/x86/tlb.cc:424: warn: TLB Message - Read the value from CR2: 0x1c4000
src/arch/x86/tlb.cc:447: warn: CR2 value used to avoid miss
src/arch/x86/tlb.cc:505: warn: TLB Message - Resetting CR2 back to 0x0
.
src/arch/x86/faults.cc:177: warn: Looking up address for 0x7fff9277acf0
src/arch/x86/faults.cc:184: warn: Adding to CR2 address 0x1c5000
src/arch/x86/tlb.cc:424: warn: TLB Message - Read the value from CR2: 0x1c5000
src/arch/x86/tlb.cc:447: warn: CR2 value used to avoid miss
src/arch/x86/tlb.cc:505: warn: TLB Message - Resetting CR2 back to 0x0
.
src/arch/x86/faults.cc:177: warn: Looking up address for 0x7fff92779be0
src/arch/x86/faults.cc:184: warn: Adding to CR2 address 0x1c6000
src/arch/x86/tlb.cc:424: warn: TLB Message - Read the value from CR2: 0x1c6000
src/arch/x86/tlb.cc:447: warn: CR2 value used to avoid miss
src/arch/x86/tlb.cc:505: warn: TLB Message - Resetting CR2 back to 0x0
.
src/arch/x86/faults.cc:177: warn: Looking up address for 0x7fff92747400
src/arch/x86/faults.cc:184: warn: Adding to CR2 address 0x1c7000
src/arch/x86/tlb.cc:424: warn: TLB Message - Read the value from CR2: 0x1c7000
src/arch/x86/tlb.cc:447: warn: CR2 value used to avoid miss
src/arch/x86/tlb.cc:505: warn: TLB Message - Resetting CR2 back to 0x0
.
src/arch/x86/faults.cc:177: warn: Looking up address for 0x7fff9248c500
src/arch/x86/faults.cc:184: warn: Adding to CR2 address 0x1c8000
src/arch/x86/tlb.cc:424: warn: TLB Message - Read the value from CR2: 0x1c8000
src/arch/x86/tlb.cc:447: warn: CR2 value used to avoid miss
src/arch/x86/tlb.cc:505: warn: TLB Message - Resetting CR2 back to 0x0
.
src/arch/x86/faults.cc:177: warn: Looking up address for 0x7fff92492650
src/arch/x86/faults.cc:184: warn: Adding to CR2 address 0x1c9000
src/arch/x86/tlb.cc:424: warn: TLB Message - Read the value from CR2: 0x1c9000
src/arch/x86/tlb.cc:447: warn: CR2 value used to avoid miss
src/arch/x86/tlb.cc:505: warn: TLB Message - Resetting CR2 back to 0x0
.
src/arch/x86/faults.cc:177: warn: Looking up address for 0x7fff924939b0
src/arch/x86/faults.cc:184: warn: Adding to CR2 address 0x1ca000
src/arch/x86/tlb.cc:424: warn: TLB Message - Read the value from CR2: 0x1ca000
src/arch/x86/tlb.cc:447: warn: CR2 value used to avoid miss
src/arch/x86/tlb.cc:505: warn: TLB Message - Resetting CR2 back to 0x0
.
src/arch/x86/faults.cc:177: warn: Looking up address for 0x7fff92479030
src/arch/x86/faults.cc:184: warn: Adding to CR2 address 0x1cb000
src/arch/x86/tlb.cc:424: warn: TLB Message - Read the value from CR2: 0x1cb000
src/arch/x86/tlb.cc:447: warn: CR2 value used to avoid miss
src/arch/x86/tlb.cc:505: warn: TLB Message - Resetting CR2 back to 0x0
.
src/arch/x86/faults.cc:177: warn: Looking up address for 0x7fff925d56ee
src/arch/x86/faults.cc:184: warn: Adding to CR2 address 0x1cc000
src/arch/x86/tlb.cc:424: warn: TLB Message - Read the value from CR2: 0x1cc000
src/arch/x86/tlb.cc:505: warn: TLB Message - Resetting CR2 back to 0x0
.
src/arch/x86/faults.cc:177: warn: Looking up address for 0x7fff9247b088
src/arch/x86/faults.cc:184: warn: Adding to CR2 address 0x1cd000
src/arch/x86/tlb.cc:424: warn: TLB Message - Read the value from CR2: 0x1cd000
src/arch/x86/tlb.cc:447: warn: CR2 value used to avoid miss
src/arch/x86/tlb.cc:505: warn: TLB Message - Resetting CR2 back to 0x0
.
src/arch/x86/faults.cc:177: warn: Looking up address for 0x7fff9247a8c0
src/arch/x86/faults.cc:184: warn: Adding to CR2 address 0x1ce000
src/arch/x86/tlb.cc:424: warn: TLB Message - Read the value from CR2: 0x1ce000
src/arch/x86/tlb.cc:447: warn: CR2 value used to avoid miss
src/arch/x86/tlb.cc:505: warn: TLB Message - Resetting CR2 back to 0x0
.
src/arch/x86/faults.cc:177: warn: Looking up address for 0x7fff92461520
src/arch/x86/faults.cc:184: warn: Adding to CR2 address 0x1cf000
src/arch/x86/tlb.cc:424: warn: TLB Message - Read the value from CR2: 0x1cf000
src/arch/x86/tlb.cc:447: warn: CR2 value used to avoid miss
src/arch/x86/tlb.cc:505: warn: TLB Message - Resetting CR2 back to 0x0
.
src/arch/x86/faults.cc:177: warn: Looking up address for 0x7fff9245e930
src/arch/x86/faults.cc:184: warn: Adding to CR2 address 0x1d0000
src/arch/x86/tlb.cc:424: warn: TLB Message - Read the value from CR2: 0x1d0000
src/arch/x86/tlb.cc:447: warn: CR2 value used to avoid miss
src/arch/x86/tlb.cc:505: warn: TLB Message - Resetting CR2 back to 0x0
.
src/arch/x86/faults.cc:177: warn: Looking up address for 0x7fff9245a4c0
src/arch/x86/faults.cc:184: warn: Adding to CR2 address 0x1d1000
src/arch/x86/tlb.cc:424: warn: TLB Message - Read the value from CR2: 0x1d1000
src/arch/x86/tlb.cc:447: warn: CR2 value used to avoid miss
src/arch/x86/tlb.cc:505: warn: TLB Message - Resetting CR2 back to 0x0
.
src/arch/x86/faults.cc:177: warn: Looking up address for 0x7fff9245f000
src/arch/x86/faults.cc:184: warn: Adding to CR2 address 0x1d2000
src/arch/x86/tlb.cc:424: warn: TLB Message - Read the value from CR2: 0x1d2000
src/arch/x86/tlb.cc:505: warn: TLB Message - Resetting CR2 back to 0x0
.
src/arch/x86/faults.cc:177: warn: Looking up address for 0x7fff92460890
src/arch/x86/faults.cc:184: warn: Adding to CR2 address 0x1d3000
src/arch/x86/tlb.cc:424: warn: TLB Message - Read the value from CR2: 0x1d3000
src/arch/x86/tlb.cc:447: warn: CR2 value used to avoid miss
src/arch/x86/tlb.cc:505: warn: TLB Message - Resetting CR2 back to 0x0
.
src/arch/x86/faults.cc:177: warn: Looking up address for 0x7fff92458d10
src/arch/x86/faults.cc:184: warn: Adding to CR2 address 0x1d4000
src/arch/x86/tlb.cc:424: warn: TLB Message - Read the value from CR2: 0x1d4000
src/arch/x86/tlb.cc:447: warn: CR2 value used to avoid miss
src/arch/x86/tlb.cc:505: warn: TLB Message - Resetting CR2 back to 0x0
.
src/arch/x86/faults.cc:177: warn: Looking up address for 0x7fff925d0e70
src/arch/x86/faults.cc:184: warn: Adding to CR2 address 0x1d5000
src/arch/x86/tlb.cc:424: warn: TLB Message - Read the value from CR2: 0x1d5000
src/arch/x86/tlb.cc:505: warn: TLB Message - Resetting CR2 back to 0x0
.
src/arch/x86/faults.cc:177: warn: Looking up address for 0x7fff92459000
src/arch/x86/faults.cc:184: warn: Adding to CR2 address 0x1d6000
src/arch/x86/tlb.cc:424: warn: TLB Message - Read the value from CR2: 0x1d6000
src/arch/x86/tlb.cc:505: warn: TLB Message - Resetting CR2 back to 0x0
.
src/arch/x86/faults.cc:177: warn: Looking up address for 0x7fff925c265c
src/arch/x86/faults.cc:184: warn: Adding to CR2 address 0x1d7000
src/arch/x86/tlb.cc:424: warn: TLB Message - Read the value from CR2: 0x1d7000
src/arch/x86/tlb.cc:505: warn: TLB Message - Resetting CR2 back to 0x0
.
src/arch/x86/faults.cc:177: warn: Looking up address for 0x7fff925de05d
src/arch/x86/faults.cc:184: warn: Adding to CR2 address 0x1d8000
src/arch/x86/tlb.cc:424: warn: TLB Message - Read the value from CR2: 0x1d8000
src/arch/x86/tlb.cc:505: warn: TLB Message - Resetting CR2 back to 0x0
.
src/arch/x86/faults.cc:177: warn: Looking up address for 0x7fff924b8880
src/arch/x86/faults.cc:184: warn: Adding to CR2 address 0x1d9000
src/arch/x86/tlb.cc:424: warn: TLB Message - Read the value from CR2: 0x1d9000
src/arch/x86/tlb.cc:447: warn: CR2 value used to avoid miss
src/arch/x86/tlb.cc:505: warn: TLB Message - Resetting CR2 back to 0x0
.
src/arch/x86/faults.cc:177: warn: Looking up address for 0x2a000
src/arch/x86/faults.cc:184: warn: Adding to CR2 address 0x1da000
src/arch/x86/tlb.cc:424: warn: TLB Message - Read the value from CR2: 0x1da000
src/arch/x86/tlb.cc:505: warn: TLB Message - Resetting CR2 back to 0x0
.
src/arch/x86/faults.cc:177: warn: Looking up address for 0x7fff92518680
src/arch/x86/faults.cc:184: warn: Adding to CR2 address 0x1db000
src/arch/x86/tlb.cc:424: warn: TLB Message - Read the value from CR2: 0x1db000
src/arch/x86/tlb.cc:447: warn: CR2 value used to avoid miss
src/arch/x86/tlb.cc:505: warn: TLB Message - Resetting CR2 back to 0x0
.
Summing Arr
Sum is 2096128
Print Middle Value:
1014
Flipping Arr
Incrementing Arr
Summing Arr
Sum is 2096128
Summing Arr
Sum is 2075648
Print Middle Value:
1038
Flipping Arr
Incrementing Arr
Incrementing Arr
Summing Arr
Sum is 2126848
Print Middle Value:
1024
Flipping Arr
Flipping Arr
Incrementing Arr
Summing Arr
Sum is 2098176
Print Middle Value:
1024
Print Middle Value:
1014
Flipping Arr
Incrementing Arr
Summing Arr
Sum is 2098176
Summing Arr
Sum is 2077696
Print Middle Value:
1040
Flipping Arr
Incrementing Arr
Incrementing Arr
Summing Arr
Sum is 2128896
Print Middle Value:
1026
Flipping Arr
Flipping Arr
Incrementing Arr
Summing Arr
Sum is 2100224
Print Middle Value:
1026
Print Middle Value:
1016
Flipping Arr
Incrementing Arr
Summing Arr
Sum is 2100224
Summing Arr
Sum is 2079744
Print Middle Value:
1040
Flipping Arr
Incrementing Arr
Incrementing Arr
Summing Arr
Sum is 2130944
Print Middle Value:
1026
Flipping Arr
Flipping Arr
Incrementing Arr
Summing Arr
Sum is 2102272
Print Middle Value:
1026
Print Middle Value:
1016
Flipping Arr
Incrementing Arr
Summing Arr
Sum is 2102272
Summing Arr
Sum is 2081792
Print Middle Value:
1042
Flipping Arr
Incrementing Arr
Incrementing Arr
Summing Arr
Sum is 2132992
Print Middle Value:
1028
Flipping Arr
Flipping Arr
Incrementing Arr
Summing Arr
Sum is 2104320
Print Middle Value:
1028
Print Middle Value:
1018
Flipping Arr
Incrementing Arr
Summing Arr
Sum is 2104320
Summing Arr
Sum is 2083840
Print Middle Value:
1042
Flipping Arr
Incrementing Arr
Incrementing Arr
Summing Arr
Sum is 2135040
Print Middle Value:
1028
Flipping Arr
Flipping Arr
Incrementing Arr
Summing Arr
Sum is 2106368
Print Middle Value:
1028
Print Middle Value:
1018
Flipping Arr
Incrementing Arr
Summing Arr
Sum is 2106368
Summing Arr
Sum is 2085888
Print Middle Value:
1044
Flipping Arr
Incrementing Arr
Incrementing Arr
Summing Arr
Sum is 2137088
Print Middle Value:
1030
Flipping Arr
Flipping Arr
Incrementing Arr
Summing Arr
Sum is 2108416
Print Middle Value:
1030
Print Middle Value:
1020
Flipping Arr
Incrementing Arr
Summing Arr
Sum is 2108416
Summing Arr
Sum is 2087936
Print Middle Value:
1044
Flipping Arr
Incrementing Arr
Incrementing Arr
Summing Arr
Sum is 2139136
Print Middle Value:
1030
Flipping Arr
Flipping Arr
Incrementing Arr
Summing Arr
Sum is 2110464
Print Middle Value:
1030
Print Middle Value:
1020
Flipping Arr
Incrementing Arr
Summing Arr
Sum is 2110464
Summing Arr
Sum is 2089984
Print Middle Value:
1046
Flipping Arr
Incrementing Arr
Incrementing Arr
Summing Arr
Sum is 2141184
Print Middle Value:
1032
Flipping Arr
Flipping Arr
Incrementing Arr
Summing Arr
Sum is 2112512
Print Middle Value:
1032
Print Middle Value:
1022
Flipping Arr
Incrementing Arr
Summing Arr
Sum is 2112512
Summing Arr
Sum is 2092032
Print Middle Value:
1046
Flipping Arr
Incrementing Arr
Incrementing Arr
Summing Arr
Sum is 2143232
Print Middle Value:
1032
Flipping Arr
Flipping Arr
Incrementing Arr
Summing Arr
Sum is 2114560
Print Middle Value:
1032
Print Middle Value:
1022
Flipping Arr
Incrementing Arr
Summing Arr
Sum is 2114560
Summing Arr
Sum is 2094080
Print Middle Value:
1048
Flipping Arr
Incrementing Arr
Incrementing Arr
Summing Arr
Sum is 2145280
Print Middle Value:
1034
Flipping Arr
Flipping Arr
Incrementing Arr
Summing Arr
Sum is 2116608
Print Middle Value:
1034
Print Middle Value:
1024
Flipping Arr
Incrementing Arr
Summing Arr
Sum is 2116608
Summing Arr
Sum is 2096128
Print Middle Value:
1048
Flipping Arr
Incrementing Arr
Incrementing Arr
Summing Arr
Sum is 2147328
Print Middle Value:
1034
Flipping Arr
Flipping Arr
Incrementing Arr
Summing Arr
Sum is 2118656
Print Middle Value:
1034
Print Middle Value:
1024
Flipping Arr
Incrementing Arr
Summing Arr
Sum is 2118656
Summing Arr
Sum is 2098176
Print Middle Value:
1050
Flipping Arr
Incrementing Arr
Incrementing Arr
Summing Arr
Sum is 2149376
Print Middle Value:
1036
Flipping Arr
Flipping Arr
Incrementing Arr
Summing Arr
Sum is 2120704
Print Middle Value:
1036
Print Middle Value:
1026
Flipping Arr
Incrementing Arr
Summing Arr
Sum is 2120704
Summing Arr
Sum is 2100224
Print Middle Value:
1050
Flipping Arr
Incrementing Arr
Incrementing Arr
Summing Arr
Sum is 2151424
Print Middle Value:
1036
Flipping Arr
Flipping Arr
Incrementing Arr
Summing Arr
Sum is 2122752
Print Middle Value:
1036
Print Middle Value:
1026
Flipping Arr
Incrementing Arr
Summing Arr
Sum is 2122752
Summing Arr
Sum is 2102272
Print Middle Value:
1052
Flipping Arr
Incrementing Arr
Incrementing Arr
Summing Arr
Sum is 2153472
Print Middle Value:
1038
Flipping Arr
Flipping Arr
Incrementing Arr
Summing Arr
Sum is 2124800
Print Middle Value:
1038
Print Middle Value:
1028
Flipping Arr
Incrementing Arr
Summing Arr
Sum is 2124800
Summing Arr
Sum is 2104320
Print Middle Value:
1052
Flipping Arr
Incrementing Arr
Incrementing Arr
Summing Arr
Sum is 2155520
Print Middle Value:
1038
Flipping Arr
Flipping Arr
Incrementing Arr
Summing Arr
Sum is 2126848
Print Middle Value:
1038
Print Middle Value:
1028
Flipping Arr
Incrementing Arr
Summing Arr
Sum is 2126848
Summing Arr
Sum is 2106368
Print Middle Value:
1054
Flipping Arr
Incrementing Arr
Incrementing Arr
Summing Arr
Sum is 2157568
Print Middle Value:
1040
Flipping Arr
Flipping Arr
Incrementing Arr
Summing Arr
Sum is 2128896
Print Middle Value:
1040
Print Middle Value:
1030
Flipping Arr
Incrementing Arr
Summing Arr
Sum is 2128896
Summing Arr
Sum is 2108416
Print Middle Value:
1054
Flipping Arr
Incrementing Arr
Incrementing Arr
Summing Arr
Sum is 2159616
Print Middle Value:
1040
Flipping Arr
Flipping Arr
Incrementing Arr
Summing Arr
Sum is 2130944
Print Middle Value:
1040
Print Middle Value:
1030
Flipping Arr
Incrementing Arr
Summing Arr
Sum is 2130944
Summing Arr
Sum is 2110464
Print Middle Value:
1056
Flipping Arr
Incrementing Arr
Incrementing Arr
Summing Arr
Sum is 2161664
Print Middle Value:
1042
Flipping Arr
Flipping Arr
Incrementing Arr
Summing Arr
Sum is 2132992
Print Middle Value:
1042
Print Middle Value:
1032
Flipping Arr
Incrementing Arr
Summing Arr
Sum is 2132992
Summing Arr
Sum is 2112512
Print Middle Value:
1056
Flipping Arr
Incrementing Arr
Incrementing Arr
Summing Arr
Sum is 2163712
Print Middle Value:
1042
Flipping Arr
Flipping Arr
Incrementing Arr
Summing Arr
Sum is 2135040
Print Middle Value:
1042
Print Middle Value:
1032
Flipping Arr
Incrementing Arr
Summing Arr
Sum is 2135040
Summing Arr
Sum is 2114560
Print Middle Value:
1058
Flipping Arr
Incrementing Arr
Incrementing Arr
Summing Arr
Sum is 2165760
Print Middle Value:
1044
Flipping Arr
Flipping Arr
Incrementing Arr
Summing Arr
Sum is 2137088
Print Middle Value:
1044
Print Middle Value:
1034
Flipping Arr
Incrementing Arr
Summing Arr
Sum is 2137088
Summing Arr
Sum is 2116608
Print Middle Value:
1058
Flipping Arr
Incrementing Arr
Incrementing Arr
Summing Arr
Sum is 2167808
Print Middle Value:
1044
Flipping Arr
Flipping Arr
Incrementing Arr
Summing Arr
Sum is 2139136
Print Middle Value:
1044
Print Middle Value:
1034
Flipping Arr
Incrementing Arr
Summing Arr
Sum is 2139136
Summing Arr
Sum is 2118656
Print Middle Value:
1060
Flipping Arr
Incrementing Arr
Incrementing Arr
Summing Arr
Sum is 2169856
Print Middle Value:
1046
Flipping Arr
Flipping Arr
Incrementing Arr
Summing Arr
Sum is 2141184
Print Middle Value:
1046
Print Middle Value:
1036
Flipping Arr
Incrementing Arr
Summing Arr
Sum is 2141184
Summing Arr
Sum is 2120704
Print Middle Value:
1060
Flipping Arr
Incrementing Arr
Incrementing Arr
Summing Arr
Sum is 2171904
Print Middle Value:
1046
Flipping Arr
Flipping Arr
Incrementing Arr
Summing Arr
Sum is 2143232
Print Middle Value:
1046
Print Middle Value:
1036
Flipping Arr
Incrementing Arr
Summing Arr
Sum is 2143232
Summing Arr
Sum is 2122752
Print Middle Value:
1062
Flipping Arr
Incrementing Arr
Incrementing Arr
Summing Arr
Sum is 2173952
Print Middle Value:
1048
Flipping Arr
Flipping Arr
Incrementing Arr
Summing Arr
Sum is 2145280
Print Middle Value:
1048
Print Middle Value:
1038
Flipping Arr
Incrementing Arr
Summing Arr
Sum is 2145280
Summing Arr
Sum is 2124800
Print Middle Value:
1062
Flipping Arr
Incrementing Arr
Incrementing Arr
Summing Arr
Sum is 2176000
Print Middle Value:
1048
Flipping Arr
Flipping Arr
Incrementing Arr
Summing Arr
Sum is 2147328
Print Middle Value:
1048
src/arch/x86/faults.cc:177: warn: Looking up address for 0x7fff926f9310
src/arch/x86/faults.cc:184: warn: Adding to CR2 address 0x1dc000
src/arch/x86/tlb.cc:424: warn: TLB Message - Read the value from CR2: 0x1dc000
src/arch/x86/tlb.cc:447: warn: CR2 value used to avoid miss
src/arch/x86/tlb.cc:505: warn: TLB Message - Resetting CR2 back to 0x0
.
src/arch/x86/faults.cc:177: warn: Looking up address for 0x7fff9278a9a0
src/arch/x86/faults.cc:184: warn: Adding to CR2 address 0x1dd000
src/arch/x86/tlb.cc:424: warn: TLB Message - Read the value from CR2: 0x1dd000
src/arch/x86/tlb.cc:447: warn: CR2 value used to avoid miss
src/arch/x86/tlb.cc:505: warn: TLB Message - Resetting CR2 back to 0x0
.
src/arch/x86/faults.cc:177: warn: Looking up address for 0x7fff9249c008
src/arch/x86/faults.cc:184: warn: Adding to CR2 address 0x1de000
src/arch/x86/tlb.cc:424: warn: TLB Message - Read the value from CR2: 0x1de000
src/arch/x86/tlb.cc:447: warn: CR2 value used to avoid miss
src/arch/x86/tlb.cc:505: warn: TLB Message - Resetting CR2 back to 0x0
.
src/arch/x86/faults.cc:177: warn: Looking up address for 0x7fff924eedd0
src/arch/x86/faults.cc:184: warn: Adding to CR2 address 0x1df000
src/arch/x86/tlb.cc:424: warn: TLB Message - Read the value from CR2: 0x1df000
src/arch/x86/tlb.cc:447: warn: CR2 value used to avoid miss
src/arch/x86/tlb.cc:505: warn: TLB Message - Resetting CR2 back to 0x0
.
src/arch/x86/faults.cc:177: warn: Looking up address for 0x7fff927d9820
src/arch/x86/faults.cc:184: warn: Adding to CR2 address 0x1e0000
src/arch/x86/tlb.cc:424: warn: TLB Message - Read the value from CR2: 0x1e0000
src/arch/x86/tlb.cc:447: warn: CR2 value used to avoid miss
src/arch/x86/tlb.cc:505: warn: TLB Message - Resetting CR2 back to 0x0
.
src/arch/x86/faults.cc:177: warn: Looking up address for 0x7fff9272e8b0
src/arch/x86/faults.cc:184: warn: Adding to CR2 address 0x1e1000
src/arch/x86/tlb.cc:424: warn: TLB Message - Read the value from CR2: 0x1e1000
src/arch/x86/tlb.cc:447: warn: CR2 value used to avoid miss
src/arch/x86/tlb.cc:505: warn: TLB Message - Resetting CR2 back to 0x0
.
src/arch/x86/faults.cc:177: warn: Looking up address for 0x7fff92727f10
src/arch/x86/faults.cc:184: warn: Adding to CR2 address 0x1e2000
src/arch/x86/tlb.cc:424: warn: TLB Message - Read the value from CR2: 0x1e2000
src/arch/x86/tlb.cc:447: warn: CR2 value used to avoid miss
src/arch/x86/tlb.cc:505: warn: TLB Message - Resetting CR2 back to 0x0
.
src/arch/x86/faults.cc:177: warn: Looking up address for 0x7fff927f6fc0
src/arch/x86/faults.cc:184: warn: Adding to CR2 address 0x1e3000
src/arch/x86/tlb.cc:424: warn: TLB Message - Read the value from CR2: 0x1e3000
src/arch/x86/tlb.cc:447: warn: CR2 value used to avoid miss
src/arch/x86/tlb.cc:505: warn: TLB Message - Resetting CR2 back to 0x0
.
src/arch/x86/faults.cc:177: warn: Looking up address for 0x7fff92645808
src/arch/x86/faults.cc:184: warn: Adding to CR2 address 0x1e4000
src/arch/x86/tlb.cc:424: warn: TLB Message - Read the value from CR2: 0x1e4000
src/arch/x86/tlb.cc:447: warn: CR2 value used to avoid miss
src/arch/x86/tlb.cc:505: warn: TLB Message - Resetting CR2 back to 0x0
.
src/arch/x86/faults.cc:177: warn: Looking up address for 0x7fff923a68c8
src/arch/x86/faults.cc:184: warn: Adding to CR2 address 0x1e5000
src/arch/x86/tlb.cc:424: warn: TLB Message - Read the value from CR2: 0x1e5000
src/arch/x86/tlb.cc:447: warn: CR2 value used to avoid miss
src/arch/x86/tlb.cc:505: warn: TLB Message - Resetting CR2 back to 0x0
.
src/arch/x86/faults.cc:177: warn: Looking up address for 0x7fff924951c0
src/arch/x86/faults.cc:184: warn: Adding to CR2 address 0x1e6000
src/arch/x86/tlb.cc:424: warn: TLB Message - Read the value from CR2: 0x1e6000
src/arch/x86/tlb.cc:447: warn: CR2 value used to avoid miss
src/arch/x86/tlb.cc:505: warn: TLB Message - Resetting CR2 back to 0x0
.
Exiting @ tick 4392326989000 because exiting with last active thread context
