Global frequency set at 1000000000000 ticks per second
warn: No dot file generated. Please install pydot to generate the dot file and pdf.
src/mem/dram_interface.cc:690: warn: DRAM device capacity (8192 Mbytes) does not match the address range assigned (512 Mbytes)
src/base/statistics.hh:279: warn: One of the stats is a legacy stat. Legacy stat is a stat that does not belong to any statistics::Group. Legacy stat is deprecated.
system.remote_gdb: Listening for connections on port 7001
gem5 Simulator System.  https://www.gem5.org
gem5 is copyrighted software; use the --copyright option for details.

gem5 version 23.0.1.0
gem5 compiled Dec 12 2023 22:07:27
gem5 started Dec 12 2023 22:10:15
gem5 executing on advos, pid 270974
command line: build/X86/gem5.opt configs/tutorial/syscall_emulation/simple.py

Beginning simulation!
src/sim/simulate.cc:194: info: Entering event queue @ 0.  Starting simulation...
src/arch/x86/faults.cc:177: warn: Looking up address for 0x7ffff7ffd008
src/arch/x86/faults.cc:184: warn: Adding to CR2 address 0x42000
src/arch/x86/tlb.cc:424: warn: TLB Message - Read the value from CR2: 0x42000
src/arch/x86/tlb.cc:505: warn: TLB Message - Resetting CR2 back to 0x0
.
src/sim/mem_state.cc:443: info: Increasing stack size by one page.
src/arch/x86/faults.cc:177: warn: Looking up address for 0x7fffffffdfac
src/arch/x86/faults.cc:184: warn: Adding to CR2 address 0x43000
src/arch/x86/tlb.cc:424: warn: TLB Message - Read the value from CR2: 0x43000
src/arch/x86/tlb.cc:505: warn: TLB Message - Resetting CR2 back to 0x0
.
src/arch/x86/faults.cc:177: warn: Looking up address for 0x7fff92878008
src/arch/x86/faults.cc:184: warn: Adding to CR2 address 0x44000
src/arch/x86/tlb.cc:424: warn: TLB Message - Read the value from CR2: 0x44000
src/arch/x86/tlb.cc:505: warn: TLB Message - Resetting CR2 back to 0x0
.
src/arch/x86/faults.cc:177: warn: Looking up address for 0x7fff9287b754
src/arch/x86/faults.cc:184: warn: Adding to CR2 address 0x45000
src/arch/x86/tlb.cc:424: warn: TLB Message - Read the value from CR2: 0x45000
src/arch/x86/tlb.cc:505: warn: TLB Message - Resetting CR2 back to 0x0
.
src/arch/x86/faults.cc:177: warn: Looking up address for 0x7fff928831bb
src/arch/x86/faults.cc:184: warn: Adding to CR2 address 0x46000
src/arch/x86/tlb.cc:424: warn: TLB Message - Read the value from CR2: 0x46000
src/arch/x86/tlb.cc:505: warn: TLB Message - Resetting CR2 back to 0x0
.
src/arch/x86/faults.cc:177: warn: Looking up address for 0x7fff92879bac
src/arch/x86/faults.cc:184: warn: Adding to CR2 address 0x47000
src/arch/x86/tlb.cc:424: warn: TLB Message - Read the value from CR2: 0x47000
src/arch/x86/tlb.cc:505: warn: TLB Message - Resetting CR2 back to 0x0
.
src/arch/x86/faults.cc:177: warn: Looking up address for 0x7fff928802ca
src/arch/x86/faults.cc:184: warn: Adding to CR2 address 0x48000
src/arch/x86/tlb.cc:424: warn: TLB Message - Read the value from CR2: 0x48000
src/arch/x86/tlb.cc:505: warn: TLB Message - Resetting CR2 back to 0x0
.
src/arch/x86/faults.cc:177: warn: Looking up address for 0x7fff928882af
src/arch/x86/faults.cc:184: warn: Adding to CR2 address 0x49000
src/arch/x86/tlb.cc:424: warn: TLB Message - Read the value from CR2: 0x49000
src/arch/x86/tlb.cc:505: warn: TLB Message - Resetting CR2 back to 0x0
.
src/arch/x86/faults.cc:177: warn: Looking up address for 0x7fff92887c8b
src/arch/x86/faults.cc:184: warn: Adding to CR2 address 0x4a000
src/arch/x86/tlb.cc:424: warn: TLB Message - Read the value from CR2: 0x4a000
src/arch/x86/tlb.cc:505: warn: TLB Message - Resetting CR2 back to 0x0
.
src/arch/x86/faults.cc:177: warn: Looking up address for 0x7fff928896f0
src/arch/x86/faults.cc:184: warn: Adding to CR2 address 0x4b000
src/arch/x86/tlb.cc:424: warn: TLB Message - Read the value from CR2: 0x4b000
src/arch/x86/tlb.cc:505: warn: TLB Message - Resetting CR2 back to 0x0
.
src/arch/x86/faults.cc:177: warn: Looking up address for 0x7fff928818cd
src/arch/x86/faults.cc:184: warn: Adding to CR2 address 0x4c000
src/arch/x86/tlb.cc:424: warn: TLB Message - Read the value from CR2: 0x4c000
src/arch/x86/tlb.cc:505: warn: TLB Message - Resetting CR2 back to 0x0
.
src/sim/syscall_emul.cc:74: warn: ignoring syscall mprotect(...)
src/arch/x86/faults.cc:177: warn: Looking up address for 0x7fff92874258
src/arch/x86/faults.cc:184: warn: Adding to CR2 address 0x4d000
src/arch/x86/tlb.cc:424: warn: TLB Message - Read the value from CR2: 0x4d000
src/arch/x86/tlb.cc:505: warn: TLB Message - Resetting CR2 back to 0x0
.
src/arch/x86/faults.cc:177: warn: Looking up address for 0x7fff92870c90
src/arch/x86/faults.cc:184: warn: Adding to CR2 address 0x4e000
src/arch/x86/tlb.cc:424: warn: TLB Message - Read the value from CR2: 0x4e000
src/arch/x86/tlb.cc:505: warn: TLB Message - Resetting CR2 back to 0x0
.
src/arch/x86/faults.cc:177: warn: Looking up address for 0x7fff9264c2a8
src/arch/x86/faults.cc:184: warn: Adding to CR2 address 0x4f000
src/arch/x86/tlb.cc:424: warn: TLB Message - Read the value from CR2: 0x4f000
src/arch/x86/tlb.cc:505: warn: TLB Message - Resetting CR2 back to 0x0
.
src/arch/x86/faults.cc:177: warn: Looking up address for 0x7fff926c2d1a
src/arch/x86/faults.cc:184: warn: Adding to CR2 address 0x50000
src/arch/x86/tlb.cc:424: warn: TLB Message - Read the value from CR2: 0x50000
src/arch/x86/tlb.cc:505: warn: TLB Message - Resetting CR2 back to 0x0
.
src/arch/x86/faults.cc:177: warn: Looking up address for 0x7fff9287d2e4
src/arch/x86/faults.cc:184: warn: Adding to CR2 address 0x51000
src/arch/x86/tlb.cc:424: warn: TLB Message - Read the value from CR2: 0x51000
src/arch/x86/tlb.cc:505: warn: TLB Message - Resetting CR2 back to 0x0
.
src/arch/x86/faults.cc:177: warn: Looking up address for 0x7fff928869eb
src/arch/x86/faults.cc:184: warn: Adding to CR2 address 0x52000
src/arch/x86/tlb.cc:424: warn: TLB Message - Read the value from CR2: 0x52000
src/arch/x86/tlb.cc:505: warn: TLB Message - Resetting CR2 back to 0x0
.
src/arch/x86/faults.cc:177: warn: Looking up address for 0x7fff9287e0ac
src/arch/x86/faults.cc:184: warn: Adding to CR2 address 0x53000
src/arch/x86/tlb.cc:424: warn: TLB Message - Read the value from CR2: 0x53000
src/arch/x86/tlb.cc:505: warn: TLB Message - Resetting CR2 back to 0x0
.
src/arch/x86/faults.cc:177: warn: Looking up address for 0x7fff9288a782
src/arch/x86/faults.cc:184: warn: Adding to CR2 address 0x54000
src/arch/x86/tlb.cc:424: warn: TLB Message - Read the value from CR2: 0x54000
src/arch/x86/tlb.cc:505: warn: TLB Message - Resetting CR2 back to 0x0
.
src/arch/x86/faults.cc:177: warn: Looking up address for 0x7fff9287ff38
src/arch/x86/faults.cc:184: warn: Adding to CR2 address 0x55000
src/arch/x86/tlb.cc:424: warn: TLB Message - Read the value from CR2: 0x55000
src/arch/x86/tlb.cc:505: warn: TLB Message - Resetting CR2 back to 0x0
.
src/arch/x86/faults.cc:177: warn: Looking up address for 0x7fff9263e888
src/arch/x86/faults.cc:184: warn: Adding to CR2 address 0x56000
src/arch/x86/tlb.cc:424: warn: TLB Message - Read the value from CR2: 0x56000
src/arch/x86/tlb.cc:505: warn: TLB Message - Resetting CR2 back to 0x0
.
src/arch/x86/faults.cc:177: warn: Looking up address for 0x7fff9263cbc0
src/arch/x86/faults.cc:184: warn: Adding to CR2 address 0x57000
src/arch/x86/tlb.cc:424: warn: TLB Message - Read the value from CR2: 0x57000
src/arch/x86/tlb.cc:505: warn: TLB Message - Resetting CR2 back to 0x0
.
src/arch/x86/faults.cc:177: warn: Looking up address for 0x7fff92424318
src/arch/x86/faults.cc:184: warn: Adding to CR2 address 0x58000
src/arch/x86/tlb.cc:424: warn: TLB Message - Read the value from CR2: 0x58000
src/arch/x86/tlb.cc:505: warn: TLB Message - Resetting CR2 back to 0x0
.
src/arch/x86/faults.cc:177: warn: Looking up address for 0x7fff924423ce
src/arch/x86/faults.cc:184: warn: Adding to CR2 address 0x59000
src/arch/x86/tlb.cc:424: warn: TLB Message - Read the value from CR2: 0x59000
src/arch/x86/tlb.cc:505: warn: TLB Message - Resetting CR2 back to 0x0
.
src/arch/x86/faults.cc:177: warn: Looking up address for 0x7fff9287a974
src/arch/x86/faults.cc:184: warn: Adding to CR2 address 0x5a000
src/arch/x86/tlb.cc:424: warn: TLB Message - Read the value from CR2: 0x5a000
src/arch/x86/tlb.cc:505: warn: TLB Message - Resetting CR2 back to 0x0
.
src/arch/x86/faults.cc:177: warn: Looking up address for 0x7fff92884b16
src/arch/x86/faults.cc:184: warn: Adding to CR2 address 0x5b000
src/arch/x86/tlb.cc:424: warn: TLB Message - Read the value from CR2: 0x5b000
src/arch/x86/tlb.cc:505: warn: TLB Message - Resetting CR2 back to 0x0
.
src/arch/x86/faults.cc:177: warn: Looking up address for 0x7ffff7ffe028
src/arch/x86/faults.cc:184: warn: Adding to CR2 address 0x5c000
src/arch/x86/tlb.cc:424: warn: TLB Message - Read the value from CR2: 0x5c000
src/arch/x86/tlb.cc:505: warn: TLB Message - Resetting CR2 back to 0x0
.
src/arch/x86/faults.cc:177: warn: Looking up address for 0x7fff924230fc
src/arch/x86/faults.cc:184: warn: Adding to CR2 address 0x5d000
src/arch/x86/tlb.cc:424: warn: TLB Message - Read the value from CR2: 0x5d000
src/arch/x86/tlb.cc:505: warn: TLB Message - Resetting CR2 back to 0x0
.
src/arch/x86/faults.cc:177: warn: Looking up address for 0x7fff92422d90
src/arch/x86/faults.cc:184: warn: Adding to CR2 address 0x5e000
src/arch/x86/tlb.cc:424: warn: TLB Message - Read the value from CR2: 0x5e000
src/arch/x86/tlb.cc:505: warn: TLB Message - Resetting CR2 back to 0x0
.
src/arch/x86/faults.cc:177: warn: Looking up address for 0x7fff9233d270
src/arch/x86/faults.cc:184: warn: Adding to CR2 address 0x5f000
src/arch/x86/tlb.cc:424: warn: TLB Message - Read the value from CR2: 0x5f000
src/arch/x86/tlb.cc:505: warn: TLB Message - Resetting CR2 back to 0x0
.
src/arch/x86/faults.cc:177: warn: Looking up address for 0x7fff92349286
src/arch/x86/faults.cc:184: warn: Adding to CR2 address 0x60000
src/arch/x86/tlb.cc:424: warn: TLB Message - Read the value from CR2: 0x60000
src/arch/x86/tlb.cc:505: warn: TLB Message - Resetting CR2 back to 0x0
.
src/arch/x86/faults.cc:177: warn: Looking up address for 0x7fff9287c51c
src/arch/x86/faults.cc:184: warn: Adding to CR2 address 0x61000
src/arch/x86/tlb.cc:424: warn: TLB Message - Read the value from CR2: 0x61000
src/arch/x86/tlb.cc:505: warn: TLB Message - Resetting CR2 back to 0x0
.
src/arch/x86/faults.cc:177: warn: Looking up address for 0x7fff928859a5
src/arch/x86/faults.cc:184: warn: Adding to CR2 address 0x62000
src/arch/x86/tlb.cc:424: warn: TLB Message - Read the value from CR2: 0x62000
src/arch/x86/tlb.cc:505: warn: TLB Message - Resetting CR2 back to 0x0
.
src/arch/x86/faults.cc:177: warn: Looking up address for 0x7fff9233c1a8
src/arch/x86/faults.cc:184: warn: Adding to CR2 address 0x63000
src/arch/x86/tlb.cc:424: warn: TLB Message - Read the value from CR2: 0x63000
src/arch/x86/tlb.cc:505: warn: TLB Message - Resetting CR2 back to 0x0
.
src/arch/x86/faults.cc:177: warn: Looking up address for 0x7fff9233bde0
src/arch/x86/faults.cc:184: warn: Adding to CR2 address 0x64000
src/arch/x86/tlb.cc:424: warn: TLB Message - Read the value from CR2: 0x64000
src/arch/x86/tlb.cc:505: warn: TLB Message - Resetting CR2 back to 0x0
.
src/arch/x86/faults.cc:177: warn: Looking up address for 0x7fff9231d270
src/arch/x86/faults.cc:184: warn: Adding to CR2 address 0x65000
src/arch/x86/tlb.cc:424: warn: TLB Message - Read the value from CR2: 0x65000
src/arch/x86/tlb.cc:505: warn: TLB Message - Resetting CR2 back to 0x0
.
src/arch/x86/faults.cc:177: warn: Looking up address for 0x7fff9231f301
src/arch/x86/faults.cc:184: warn: Adding to CR2 address 0x66000
src/arch/x86/tlb.cc:424: warn: TLB Message - Read the value from CR2: 0x66000
src/arch/x86/tlb.cc:505: warn: TLB Message - Resetting CR2 back to 0x0
.
src/arch/x86/faults.cc:177: warn: Looking up address for 0x7fff926c60c0
src/arch/x86/faults.cc:184: warn: Adding to CR2 address 0x67000
src/arch/x86/tlb.cc:424: warn: TLB Message - Read the value from CR2: 0x67000
src/arch/x86/tlb.cc:505: warn: TLB Message - Resetting CR2 back to 0x0
.
src/arch/x86/faults.cc:177: warn: Looking up address for 0x7fff92443d08
src/arch/x86/faults.cc:184: warn: Adding to CR2 address 0x68000
src/arch/x86/tlb.cc:424: warn: TLB Message - Read the value from CR2: 0x68000
src/arch/x86/tlb.cc:505: warn: TLB Message - Resetting CR2 back to 0x0
.
src/arch/x86/faults.cc:177: warn: Looking up address for 0x7fff92444010
src/arch/x86/faults.cc:184: warn: Adding to CR2 address 0x69000
src/arch/x86/tlb.cc:424: warn: TLB Message - Read the value from CR2: 0x69000
src/arch/x86/tlb.cc:505: warn: TLB Message - Resetting CR2 back to 0x0
.
src/arch/x86/faults.cc:177: warn: Looking up address for 0x7fff926c3000
src/arch/x86/faults.cc:184: warn: Adding to CR2 address 0x6a000
src/arch/x86/tlb.cc:424: warn: TLB Message - Read the value from CR2: 0x6a000
src/arch/x86/tlb.cc:505: warn: TLB Message - Resetting CR2 back to 0x0
.
src/arch/x86/faults.cc:177: warn: Looking up address for 0x7fff9231b3cc
src/arch/x86/faults.cc:184: warn: Adding to CR2 address 0x6b000
src/arch/x86/tlb.cc:424: warn: TLB Message - Read the value from CR2: 0x6b000
src/arch/x86/tlb.cc:505: warn: TLB Message - Resetting CR2 back to 0x0
.
src/arch/x86/faults.cc:177: warn: Looking up address for 0x7fff9231c3c0
src/arch/x86/faults.cc:184: warn: Adding to CR2 address 0x6c000
src/arch/x86/tlb.cc:424: warn: TLB Message - Read the value from CR2: 0x6c000
src/arch/x86/tlb.cc:505: warn: TLB Message - Resetting CR2 back to 0x0
.
src/sim/syscall_emul.cc:74: warn: ignoring syscall set_robust_list(...)
src/sim/syscall_emul.cc:74: warn: ignoring syscall rseq(...)
src/arch/x86/faults.cc:177: warn: Looking up address for 0x7fff9263d008
src/arch/x86/faults.cc:184: warn: Adding to CR2 address 0x6d000
src/arch/x86/tlb.cc:424: warn: TLB Message - Read the value from CR2: 0x6d000
src/arch/x86/tlb.cc:505: warn: TLB Message - Resetting CR2 back to 0x0
.
src/arch/x86/faults.cc:177: warn: Looking up address for 0x7fff926398f0
src/arch/x86/faults.cc:184: warn: Adding to CR2 address 0x6e000
src/arch/x86/tlb.cc:424: warn: TLB Message - Read the value from CR2: 0x6e000
src/arch/x86/tlb.cc:505: warn: TLB Message - Resetting CR2 back to 0x0
.
src/arch/x86/faults.cc:177: warn: Looking up address for 0x7fff92445000
src/arch/x86/faults.cc:184: warn: Adding to CR2 address 0x6f000
src/arch/x86/tlb.cc:424: warn: TLB Message - Read the value from CR2: 0x6f000
src/arch/x86/tlb.cc:505: warn: TLB Message - Resetting CR2 back to 0x0
.
src/arch/x86/faults.cc:177: warn: Looking up address for 0x7fff9263a010
src/arch/x86/faults.cc:184: warn: Adding to CR2 address 0x70000
src/arch/x86/tlb.cc:424: warn: TLB Message - Read the value from CR2: 0x70000
src/arch/x86/tlb.cc:505: warn: TLB Message - Resetting CR2 back to 0x0
.
src/arch/x86/faults.cc:177: warn: Looking up address for 0x7fff92446000
src/arch/x86/faults.cc:184: warn: Adding to CR2 address 0x71000
src/arch/x86/tlb.cc:424: warn: TLB Message - Read the value from CR2: 0x71000
src/arch/x86/tlb.cc:505: warn: TLB Message - Resetting CR2 back to 0x0
.
src/arch/x86/faults.cc:177: warn: Looking up address for 0x7fff92447000
src/arch/x86/faults.cc:184: warn: Adding to CR2 address 0x72000
src/arch/x86/tlb.cc:424: warn: TLB Message - Read the value from CR2: 0x72000
src/arch/x86/tlb.cc:505: warn: TLB Message - Resetting CR2 back to 0x0
.
src/arch/x86/faults.cc:177: warn: Looking up address for 0x7fff9263b000
src/arch/x86/faults.cc:184: warn: Adding to CR2 address 0x73000
src/arch/x86/tlb.cc:424: warn: TLB Message - Read the value from CR2: 0x73000
src/arch/x86/tlb.cc:505: warn: TLB Message - Resetting CR2 back to 0x0
.
src/arch/x86/faults.cc:177: warn: Looking up address for 0x7fff92448000
src/arch/x86/faults.cc:184: warn: Adding to CR2 address 0x74000
src/arch/x86/tlb.cc:424: warn: TLB Message - Read the value from CR2: 0x74000
src/arch/x86/tlb.cc:505: warn: TLB Message - Resetting CR2 back to 0x0
.
src/arch/x86/faults.cc:177: warn: Looking up address for 0x7fff92449000
src/arch/x86/faults.cc:184: warn: Adding to CR2 address 0x75000
src/arch/x86/tlb.cc:424: warn: TLB Message - Read the value from CR2: 0x75000
src/arch/x86/tlb.cc:505: warn: TLB Message - Resetting CR2 back to 0x0
.
src/arch/x86/faults.cc:177: warn: Looking up address for 0x7fff9244a000
src/arch/x86/faults.cc:184: warn: Adding to CR2 address 0x76000
src/arch/x86/tlb.cc:424: warn: TLB Message - Read the value from CR2: 0x76000
src/arch/x86/tlb.cc:505: warn: TLB Message - Resetting CR2 back to 0x0
.
src/arch/x86/faults.cc:177: warn: Looking up address for 0x7fff9244b000
src/arch/x86/faults.cc:184: warn: Adding to CR2 address 0x77000
src/arch/x86/tlb.cc:424: warn: TLB Message - Read the value from CR2: 0x77000
src/arch/x86/tlb.cc:505: warn: TLB Message - Resetting CR2 back to 0x0
.
src/arch/x86/faults.cc:177: warn: Looking up address for 0x7fff9243337c
src/arch/x86/faults.cc:184: warn: Adding to CR2 address 0x78000
src/arch/x86/tlb.cc:424: warn: TLB Message - Read the value from CR2: 0x78000
src/arch/x86/tlb.cc:505: warn: TLB Message - Resetting CR2 back to 0x0
.
src/arch/x86/faults.cc:177: warn: Looking up address for 0x7fff92440d3c
src/arch/x86/faults.cc:184: warn: Adding to CR2 address 0x79000
src/arch/x86/tlb.cc:424: warn: TLB Message - Read the value from CR2: 0x79000
src/arch/x86/tlb.cc:505: warn: TLB Message - Resetting CR2 back to 0x0
.
src/arch/x86/faults.cc:177: warn: Looking up address for 0x7fff924255d4
src/arch/x86/faults.cc:184: warn: Adding to CR2 address 0x7a000
src/arch/x86/tlb.cc:424: warn: TLB Message - Read the value from CR2: 0x7a000
src/arch/x86/tlb.cc:505: warn: TLB Message - Resetting CR2 back to 0x0
.
src/arch/x86/faults.cc:177: warn: Looking up address for 0x7fff924277a8
src/arch/x86/faults.cc:184: warn: Adding to CR2 address 0x7b000
src/arch/x86/tlb.cc:424: warn: TLB Message - Read the value from CR2: 0x7b000
src/arch/x86/tlb.cc:505: warn: TLB Message - Resetting CR2 back to 0x0
.
src/arch/x86/faults.cc:177: warn: Looking up address for 0x7fff92428ad4
src/arch/x86/faults.cc:184: warn: Adding to CR2 address 0x7c000
src/arch/x86/tlb.cc:424: warn: TLB Message - Read the value from CR2: 0x7c000
src/arch/x86/tlb.cc:505: warn: TLB Message - Resetting CR2 back to 0x0
.
src/arch/x86/faults.cc:177: warn: Looking up address for 0x7fff9242aeec
src/arch/x86/faults.cc:184: warn: Adding to CR2 address 0x7d000
src/arch/x86/tlb.cc:424: warn: TLB Message - Read the value from CR2: 0x7d000
src/arch/x86/tlb.cc:505: warn: TLB Message - Resetting CR2 back to 0x0
.
src/arch/x86/faults.cc:177: warn: Looking up address for 0x7fff9243c3ef
src/arch/x86/faults.cc:184: warn: Adding to CR2 address 0x7e000
src/arch/x86/tlb.cc:424: warn: TLB Message - Read the value from CR2: 0x7e000
src/arch/x86/tlb.cc:505: warn: TLB Message - Resetting CR2 back to 0x0
.
src/arch/x86/faults.cc:177: warn: Looking up address for 0x7fff92426190
src/arch/x86/faults.cc:184: warn: Adding to CR2 address 0x7f000
src/arch/x86/tlb.cc:424: warn: TLB Message - Read the value from CR2: 0x7f000
src/arch/x86/tlb.cc:505: warn: TLB Message - Resetting CR2 back to 0x0
.
src/arch/x86/faults.cc:177: warn: Looking up address for 0x7fff92430b44
src/arch/x86/faults.cc:184: warn: Adding to CR2 address 0x80000
src/arch/x86/tlb.cc:424: warn: TLB Message - Read the value from CR2: 0x80000
src/arch/x86/tlb.cc:505: warn: TLB Message - Resetting CR2 back to 0x0
.
src/arch/x86/faults.cc:177: warn: Looking up address for 0x7fff9243a6d7
src/arch/x86/faults.cc:184: warn: Adding to CR2 address 0x81000
src/arch/x86/tlb.cc:424: warn: TLB Message - Read the value from CR2: 0x81000
src/arch/x86/tlb.cc:505: warn: TLB Message - Resetting CR2 back to 0x0
.
src/arch/x86/faults.cc:177: warn: Looking up address for 0x7fff9264d288
src/arch/x86/faults.cc:184: warn: Adding to CR2 address 0x82000
src/arch/x86/tlb.cc:424: warn: TLB Message - Read the value from CR2: 0x82000
src/arch/x86/tlb.cc:505: warn: TLB Message - Resetting CR2 back to 0x0
.
src/arch/x86/faults.cc:177: warn: Looking up address for 0x7fff92434594
src/arch/x86/faults.cc:184: warn: Adding to CR2 address 0x83000
src/arch/x86/tlb.cc:424: warn: TLB Message - Read the value from CR2: 0x83000
src/arch/x86/tlb.cc:505: warn: TLB Message - Resetting CR2 back to 0x0
.
src/arch/x86/faults.cc:177: warn: Looking up address for 0x7fff9243b08d
src/arch/x86/faults.cc:184: warn: Adding to CR2 address 0x84000
src/arch/x86/tlb.cc:424: warn: TLB Message - Read the value from CR2: 0x84000
src/arch/x86/tlb.cc:505: warn: TLB Message - Resetting CR2 back to 0x0
.
src/arch/x86/faults.cc:177: warn: Looking up address for 0x7fff9243880c
src/arch/x86/faults.cc:184: warn: Adding to CR2 address 0x85000
src/arch/x86/tlb.cc:424: warn: TLB Message - Read the value from CR2: 0x85000
src/arch/x86/tlb.cc:505: warn: TLB Message - Resetting CR2 back to 0x0
.
src/arch/x86/faults.cc:177: warn: Looking up address for 0x7fff924314d4
src/arch/x86/faults.cc:184: warn: Adding to CR2 address 0x86000
src/arch/x86/tlb.cc:424: warn: TLB Message - Read the value from CR2: 0x86000
src/arch/x86/tlb.cc:505: warn: TLB Message - Resetting CR2 back to 0x0
.
src/arch/x86/faults.cc:177: warn: Looking up address for 0x7fff9243f42e
src/arch/x86/faults.cc:184: warn: Adding to CR2 address 0x87000
src/arch/x86/tlb.cc:424: warn: TLB Message - Read the value from CR2: 0x87000
src/arch/x86/tlb.cc:505: warn: TLB Message - Resetting CR2 back to 0x0
.
src/arch/x86/faults.cc:177: warn: Looking up address for 0x7fff9264e004
src/arch/x86/faults.cc:184: warn: Adding to CR2 address 0x88000
src/arch/x86/tlb.cc:424: warn: TLB Message - Read the value from CR2: 0x88000
src/arch/x86/tlb.cc:505: warn: TLB Message - Resetting CR2 back to 0x0
.
src/arch/x86/faults.cc:177: warn: Looking up address for 0x7fff926518fc
src/arch/x86/faults.cc:184: warn: Adding to CR2 address 0x89000
src/arch/x86/tlb.cc:424: warn: TLB Message - Read the value from CR2: 0x89000
src/arch/x86/tlb.cc:505: warn: TLB Message - Resetting CR2 back to 0x0
.
src/arch/x86/faults.cc:177: warn: Looking up address for 0x7fff924377a4
src/arch/x86/faults.cc:184: warn: Adding to CR2 address 0x8a000
src/arch/x86/tlb.cc:424: warn: TLB Message - Read the value from CR2: 0x8a000
src/arch/x86/tlb.cc:505: warn: TLB Message - Resetting CR2 back to 0x0
.
src/arch/x86/faults.cc:177: warn: Looking up address for 0x7fff92650ea8
src/arch/x86/faults.cc:184: warn: Adding to CR2 address 0x8b000
src/arch/x86/tlb.cc:424: warn: TLB Message - Read the value from CR2: 0x8b000
src/arch/x86/tlb.cc:505: warn: TLB Message - Resetting CR2 back to 0x0
.
src/arch/x86/faults.cc:177: warn: Looking up address for 0x7fff9243508c
src/arch/x86/faults.cc:184: warn: Adding to CR2 address 0x8c000
src/arch/x86/tlb.cc:424: warn: TLB Message - Read the value from CR2: 0x8c000
src/arch/x86/tlb.cc:505: warn: TLB Message - Resetting CR2 back to 0x0
.
src/arch/x86/faults.cc:177: warn: Looking up address for 0x7fff9242b39c
src/arch/x86/faults.cc:184: warn: Adding to CR2 address 0x8d000
src/arch/x86/tlb.cc:424: warn: TLB Message - Read the value from CR2: 0x8d000
src/arch/x86/tlb.cc:505: warn: TLB Message - Resetting CR2 back to 0x0
.
src/arch/x86/faults.cc:177: warn: Looking up address for 0x7fff924329d4
src/arch/x86/faults.cc:184: warn: Adding to CR2 address 0x8e000
src/arch/x86/tlb.cc:424: warn: TLB Message - Read the value from CR2: 0x8e000
src/arch/x86/tlb.cc:505: warn: TLB Message - Resetting CR2 back to 0x0
.
src/arch/x86/faults.cc:177: warn: Looking up address for 0x7fff92441080
src/arch/x86/faults.cc:184: warn: Adding to CR2 address 0x8f000
src/arch/x86/tlb.cc:424: warn: TLB Message - Read the value from CR2: 0x8f000
src/arch/x86/tlb.cc:505: warn: TLB Message - Resetting CR2 back to 0x0
.
src/arch/x86/faults.cc:177: warn: Looking up address for 0x7fff9243d548
src/arch/x86/faults.cc:184: warn: Adding to CR2 address 0x90000
src/arch/x86/tlb.cc:424: warn: TLB Message - Read the value from CR2: 0x90000
src/arch/x86/tlb.cc:505: warn: TLB Message - Resetting CR2 back to 0x0
.
src/arch/x86/faults.cc:177: warn: Looking up address for 0x7fff92652594
src/arch/x86/faults.cc:184: warn: Adding to CR2 address 0x91000
src/arch/x86/tlb.cc:424: warn: TLB Message - Read the value from CR2: 0x91000
src/arch/x86/tlb.cc:505: warn: TLB Message - Resetting CR2 back to 0x0
.
src/arch/x86/faults.cc:177: warn: Looking up address for 0x7fff924295fc
src/arch/x86/faults.cc:184: warn: Adding to CR2 address 0x92000
src/arch/x86/tlb.cc:424: warn: TLB Message - Read the value from CR2: 0x92000
src/arch/x86/tlb.cc:505: warn: TLB Message - Resetting CR2 back to 0x0
.
src/arch/x86/faults.cc:177: warn: Looking up address for 0x7fff924390c4
src/arch/x86/faults.cc:184: warn: Adding to CR2 address 0x93000
src/arch/x86/tlb.cc:424: warn: TLB Message - Read the value from CR2: 0x93000
src/arch/x86/tlb.cc:505: warn: TLB Message - Resetting CR2 back to 0x0
.
src/arch/x86/faults.cc:177: warn: Looking up address for 0x7fff9243e4a6
src/arch/x86/faults.cc:184: warn: Adding to CR2 address 0x94000
src/arch/x86/tlb.cc:424: warn: TLB Message - Read the value from CR2: 0x94000
src/arch/x86/tlb.cc:505: warn: TLB Message - Resetting CR2 back to 0x0
.
src/arch/x86/faults.cc:177: warn: Looking up address for 0x7fff92436e74
src/arch/x86/faults.cc:184: warn: Adding to CR2 address 0x95000
src/arch/x86/tlb.cc:424: warn: TLB Message - Read the value from CR2: 0x95000
src/arch/x86/tlb.cc:505: warn: TLB Message - Resetting CR2 back to 0x0
.
src/arch/x86/faults.cc:177: warn: Looking up address for 0x7fff9242e294
src/arch/x86/faults.cc:184: warn: Adding to CR2 address 0x96000
src/arch/x86/tlb.cc:424: warn: TLB Message - Read the value from CR2: 0x96000
src/arch/x86/tlb.cc:505: warn: TLB Message - Resetting CR2 back to 0x0
.
src/arch/x86/faults.cc:177: warn: Looking up address for 0x7fff9242dc1c
src/arch/x86/faults.cc:184: warn: Adding to CR2 address 0x97000
src/arch/x86/tlb.cc:424: warn: TLB Message - Read the value from CR2: 0x97000
src/arch/x86/tlb.cc:505: warn: TLB Message - Resetting CR2 back to 0x0
.
src/arch/x86/faults.cc:177: warn: Looking up address for 0x7fff92654144
src/arch/x86/faults.cc:184: warn: Adding to CR2 address 0x98000
src/arch/x86/tlb.cc:424: warn: TLB Message - Read the value from CR2: 0x98000
src/arch/x86/tlb.cc:505: warn: TLB Message - Resetting CR2 back to 0x0
.
src/arch/x86/faults.cc:177: warn: Looking up address for 0x7fff92653368
src/arch/x86/faults.cc:184: warn: Adding to CR2 address 0x99000
src/arch/x86/tlb.cc:424: warn: TLB Message - Read the value from CR2: 0x99000
src/arch/x86/tlb.cc:505: warn: TLB Message - Resetting CR2 back to 0x0
.
src/arch/x86/faults.cc:177: warn: Looking up address for 0x7fff9242c4f4
src/arch/x86/faults.cc:184: warn: Adding to CR2 address 0x9a000
src/arch/x86/tlb.cc:424: warn: TLB Message - Read the value from CR2: 0x9a000
src/arch/x86/tlb.cc:505: warn: TLB Message - Resetting CR2 back to 0x0
.
src/arch/x86/faults.cc:177: warn: Looking up address for 0x7fff9264f770
src/arch/x86/faults.cc:184: warn: Adding to CR2 address 0x9b000
src/arch/x86/tlb.cc:424: warn: TLB Message - Read the value from CR2: 0x9b000
src/arch/x86/tlb.cc:505: warn: TLB Message - Resetting CR2 back to 0x0
.
src/arch/x86/faults.cc:177: warn: Looking up address for 0x7fff924e91a0
src/arch/x86/faults.cc:184: warn: Adding to CR2 address 0x9c000
src/arch/x86/tlb.cc:424: warn: TLB Message - Read the value from CR2: 0x9c000
src/arch/x86/tlb.cc:447: warn: CR2 value used to avoid miss
src/arch/x86/tlb.cc:505: warn: TLB Message - Resetting CR2 back to 0x0
.
src/arch/x86/faults.cc:177: warn: Looking up address for 0x7fff926445a8
src/arch/x86/faults.cc:184: warn: Adding to CR2 address 0x9d000
src/arch/x86/tlb.cc:424: warn: TLB Message - Read the value from CR2: 0x9d000
src/arch/x86/tlb.cc:505: warn: TLB Message - Resetting CR2 back to 0x0
.
src/arch/x86/faults.cc:177: warn: Looking up address for 0x7fff924cc720
src/arch/x86/faults.cc:184: warn: Adding to CR2 address 0x9e000
src/arch/x86/tlb.cc:424: warn: TLB Message - Read the value from CR2: 0x9e000
src/arch/x86/tlb.cc:447: warn: CR2 value used to avoid miss
src/arch/x86/tlb.cc:505: warn: TLB Message - Resetting CR2 back to 0x0
.
src/arch/x86/faults.cc:177: warn: Looking up address for 0x7fff924eacd0
src/arch/x86/faults.cc:184: warn: Adding to CR2 address 0x9f000
src/arch/x86/tlb.cc:424: warn: TLB Message - Read the value from CR2: 0x9f000
src/arch/x86/tlb.cc:447: warn: CR2 value used to avoid miss
src/arch/x86/tlb.cc:505: warn: TLB Message - Resetting CR2 back to 0x0
.
src/arch/x86/faults.cc:177: warn: Looking up address for 0x7fff924cd6d0
src/arch/x86/faults.cc:184: warn: Adding to CR2 address 0xa0000
src/arch/x86/tlb.cc:424: warn: TLB Message - Read the value from CR2: 0xa0000
src/arch/x86/tlb.cc:447: warn: CR2 value used to avoid miss
src/arch/x86/tlb.cc:505: warn: TLB Message - Resetting CR2 back to 0x0
.
src/arch/x86/faults.cc:177: warn: Looking up address for 0x7fff924d5570
src/arch/x86/faults.cc:184: warn: Adding to CR2 address 0xa1000
src/arch/x86/tlb.cc:424: warn: TLB Message - Read the value from CR2: 0xa1000
src/arch/x86/tlb.cc:447: warn: CR2 value used to avoid miss
src/arch/x86/tlb.cc:505: warn: TLB Message - Resetting CR2 back to 0x0
.
src/arch/x86/faults.cc:177: warn: Looking up address for 0x7fff924cf010
src/arch/x86/faults.cc:184: warn: Adding to CR2 address 0xa2000
src/arch/x86/tlb.cc:424: warn: TLB Message - Read the value from CR2: 0xa2000
src/arch/x86/tlb.cc:447: warn: CR2 value used to avoid miss
src/arch/x86/tlb.cc:505: warn: TLB Message - Resetting CR2 back to 0x0
.
src/arch/x86/faults.cc:177: warn: Looking up address for 0x7fff924cef80
src/arch/x86/faults.cc:184: warn: Adding to CR2 address 0xa3000
src/arch/x86/tlb.cc:424: warn: TLB Message - Read the value from CR2: 0xa3000
src/arch/x86/tlb.cc:447: warn: CR2 value used to avoid miss
src/arch/x86/tlb.cc:505: warn: TLB Message - Resetting CR2 back to 0x0
.
src/sim/syscall_emul.cc:74: warn: ignoring syscall mprotect(...)
src/arch/x86/faults.cc:177: warn: Looking up address for 0x7fff9231e244
src/arch/x86/faults.cc:184: warn: Adding to CR2 address 0xa4000
src/arch/x86/tlb.cc:424: warn: TLB Message - Read the value from CR2: 0xa4000
src/arch/x86/tlb.cc:505: warn: TLB Message - Resetting CR2 back to 0x0
.
src/sim/syscall_emul.cc:74: warn: ignoring syscall mprotect(...)
src/arch/x86/faults.cc:177: warn: Looking up address for 0x7fff9233f99c
src/arch/x86/faults.cc:184: warn: Adding to CR2 address 0xa5000
src/arch/x86/tlb.cc:424: warn: TLB Message - Read the value from CR2: 0xa5000
src/arch/x86/tlb.cc:505: warn: TLB Message - Resetting CR2 back to 0x0
.
src/arch/x86/faults.cc:177: warn: Looking up address for 0x7fff92346b18
src/arch/x86/faults.cc:184: warn: Adding to CR2 address 0xa6000
src/arch/x86/tlb.cc:424: warn: TLB Message - Read the value from CR2: 0xa6000
src/arch/x86/tlb.cc:505: warn: TLB Message - Resetting CR2 back to 0x0
.
src/arch/x86/faults.cc:177: warn: Looking up address for 0x7fff92345024
src/arch/x86/faults.cc:184: warn: Adding to CR2 address 0xa7000
src/arch/x86/tlb.cc:424: warn: TLB Message - Read the value from CR2: 0xa7000
src/arch/x86/tlb.cc:505: warn: TLB Message - Resetting CR2 back to 0x0
.
src/arch/x86/faults.cc:177: warn: Looking up address for 0x7fff9233e320
src/arch/x86/faults.cc:184: warn: Adding to CR2 address 0xa8000
src/arch/x86/tlb.cc:424: warn: TLB Message - Read the value from CR2: 0xa8000
src/arch/x86/tlb.cc:505: warn: TLB Message - Resetting CR2 back to 0x0
.
src/arch/x86/faults.cc:177: warn: Looking up address for 0x7fff92347782
src/arch/x86/faults.cc:184: warn: Adding to CR2 address 0xa9000
src/arch/x86/tlb.cc:424: warn: TLB Message - Read the value from CR2: 0xa9000
src/arch/x86/tlb.cc:505: warn: TLB Message - Resetting CR2 back to 0x0
.
src/arch/x86/faults.cc:177: warn: Looking up address for 0x7fff923402e4
src/arch/x86/faults.cc:184: warn: Adding to CR2 address 0xaa000
src/arch/x86/tlb.cc:424: warn: TLB Message - Read the value from CR2: 0xaa000
src/arch/x86/tlb.cc:505: warn: TLB Message - Resetting CR2 back to 0x0
.
src/arch/x86/faults.cc:177: warn: Looking up address for 0x7fff9234a000
src/arch/x86/faults.cc:184: warn: Adding to CR2 address 0xab000
src/arch/x86/tlb.cc:424: warn: TLB Message - Read the value from CR2: 0xab000
src/arch/x86/tlb.cc:505: warn: TLB Message - Resetting CR2 back to 0x0
.
src/arch/x86/faults.cc:177: warn: Looking up address for 0x7fff9234248c
src/arch/x86/faults.cc:184: warn: Adding to CR2 address 0xac000
src/arch/x86/tlb.cc:424: warn: TLB Message - Read the value from CR2: 0xac000
src/arch/x86/tlb.cc:505: warn: TLB Message - Resetting CR2 back to 0x0
.
src/arch/x86/faults.cc:177: warn: Looking up address for 0x7fff9237b4b0
src/arch/x86/faults.cc:184: warn: Adding to CR2 address 0xad000
src/arch/x86/tlb.cc:424: warn: TLB Message - Read the value from CR2: 0xad000
src/arch/x86/tlb.cc:447: warn: CR2 value used to avoid miss
src/arch/x86/tlb.cc:505: warn: TLB Message - Resetting CR2 back to 0x0
.
src/arch/x86/faults.cc:177: warn: Looking up address for 0x7fff92362fd0
src/arch/x86/faults.cc:184: warn: Adding to CR2 address 0xae000
src/arch/x86/tlb.cc:424: warn: TLB Message - Read the value from CR2: 0xae000
src/arch/x86/tlb.cc:447: warn: CR2 value used to avoid miss
src/arch/x86/tlb.cc:505: warn: TLB Message - Resetting CR2 back to 0x0
.
src/arch/x86/faults.cc:177: warn: Looking up address for 0x7fff92363000
src/arch/x86/faults.cc:184: warn: Adding to CR2 address 0xaf000
src/arch/x86/tlb.cc:424: warn: TLB Message - Read the value from CR2: 0xaf000
src/arch/x86/tlb.cc:505: warn: TLB Message - Resetting CR2 back to 0x0
.
src/arch/x86/faults.cc:177: warn: Looking up address for 0x7fff923761b0
src/arch/x86/faults.cc:184: warn: Adding to CR2 address 0xb0000
src/arch/x86/tlb.cc:424: warn: TLB Message - Read the value from CR2: 0xb0000
src/arch/x86/tlb.cc:447: warn: CR2 value used to avoid miss
src/arch/x86/tlb.cc:505: warn: TLB Message - Resetting CR2 back to 0x0
.
src/arch/x86/faults.cc:177: warn: Looking up address for 0x7fff9236b7b0
src/arch/x86/faults.cc:184: warn: Adding to CR2 address 0xb1000
src/arch/x86/tlb.cc:424: warn: TLB Message - Read the value from CR2: 0xb1000
src/arch/x86/tlb.cc:447: warn: CR2 value used to avoid miss
src/arch/x86/tlb.cc:505: warn: TLB Message - Resetting CR2 back to 0x0
.
src/arch/x86/faults.cc:177: warn: Looking up address for 0x7fff92379c00
src/arch/x86/faults.cc:184: warn: Adding to CR2 address 0xb2000
src/arch/x86/tlb.cc:424: warn: TLB Message - Read the value from CR2: 0xb2000
src/arch/x86/tlb.cc:447: warn: CR2 value used to avoid miss
src/arch/x86/tlb.cc:505: warn: TLB Message - Resetting CR2 back to 0x0
.
src/arch/x86/faults.cc:177: warn: Looking up address for 0x7fff9237d0f0
src/arch/x86/faults.cc:184: warn: Adding to CR2 address 0xb3000
src/arch/x86/tlb.cc:424: warn: TLB Message - Read the value from CR2: 0xb3000
src/arch/x86/tlb.cc:447: warn: CR2 value used to avoid miss
src/arch/x86/tlb.cc:505: warn: TLB Message - Resetting CR2 back to 0x0
.
src/arch/x86/faults.cc:177: warn: Looking up address for 0x7fff9237a110
src/arch/x86/faults.cc:184: warn: Adding to CR2 address 0xb4000
src/arch/x86/tlb.cc:424: warn: TLB Message - Read the value from CR2: 0xb4000
src/arch/x86/tlb.cc:447: warn: CR2 value used to avoid miss
src/arch/x86/tlb.cc:505: warn: TLB Message - Resetting CR2 back to 0x0
.
src/arch/x86/faults.cc:177: warn: Looking up address for 0x7fff92366d80
src/arch/x86/faults.cc:184: warn: Adding to CR2 address 0xb5000
src/arch/x86/tlb.cc:424: warn: TLB Message - Read the value from CR2: 0xb5000
src/arch/x86/tlb.cc:447: warn: CR2 value used to avoid miss
src/arch/x86/tlb.cc:505: warn: TLB Message - Resetting CR2 back to 0x0
.
src/arch/x86/faults.cc:177: warn: Looking up address for 0x7fff92361f60
src/arch/x86/faults.cc:184: warn: Adding to CR2 address 0xb6000
src/arch/x86/tlb.cc:424: warn: TLB Message - Read the value from CR2: 0xb6000
src/arch/x86/tlb.cc:447: warn: CR2 value used to avoid miss
src/arch/x86/tlb.cc:505: warn: TLB Message - Resetting CR2 back to 0x0
.
src/arch/x86/faults.cc:177: warn: Looking up address for 0x7fff9237c9c0
src/arch/x86/faults.cc:184: warn: Adding to CR2 address 0xb7000
src/arch/x86/tlb.cc:424: warn: TLB Message - Read the value from CR2: 0xb7000
src/arch/x86/tlb.cc:447: warn: CR2 value used to avoid miss
src/arch/x86/tlb.cc:505: warn: TLB Message - Resetting CR2 back to 0x0
.
src/arch/x86/faults.cc:177: warn: Looking up address for 0x7fff9236e000
src/arch/x86/faults.cc:184: warn: Adding to CR2 address 0xb8000
src/arch/x86/tlb.cc:424: warn: TLB Message - Read the value from CR2: 0xb8000
src/arch/x86/tlb.cc:447: warn: CR2 value used to avoid miss
src/arch/x86/tlb.cc:505: warn: TLB Message - Resetting CR2 back to 0x0
.
src/arch/x86/faults.cc:177: warn: Looking up address for 0x7fff923838e0
src/arch/x86/faults.cc:184: warn: Adding to CR2 address 0xb9000
src/arch/x86/tlb.cc:424: warn: TLB Message - Read the value from CR2: 0xb9000
src/arch/x86/tlb.cc:447: warn: CR2 value used to avoid miss
src/arch/x86/tlb.cc:505: warn: TLB Message - Resetting CR2 back to 0x0
.
src/sim/syscall_emul.cc:74: warn: ignoring syscall mprotect(...)
src/arch/x86/faults.cc:177: warn: Looking up address for 0x7fff92872008
src/arch/x86/faults.cc:184: warn: Adding to CR2 address 0xba000
src/arch/x86/tlb.cc:424: warn: TLB Message - Read the value from CR2: 0xba000
src/arch/x86/tlb.cc:505: warn: TLB Message - Resetting CR2 back to 0x0
.
src/arch/x86/faults.cc:177: warn: Looking up address for 0x7fff92867880
src/arch/x86/faults.cc:184: warn: Adding to CR2 address 0xbb000
src/arch/x86/tlb.cc:424: warn: TLB Message - Read the value from CR2: 0xbb000
src/arch/x86/tlb.cc:505: warn: TLB Message - Resetting CR2 back to 0x0
.
src/arch/x86/faults.cc:177: warn: Looking up address for 0x7fff926c7000
src/arch/x86/faults.cc:184: warn: Adding to CR2 address 0xbc000
src/arch/x86/tlb.cc:424: warn: TLB Message - Read the value from CR2: 0xbc000
src/arch/x86/tlb.cc:505: warn: TLB Message - Resetting CR2 back to 0x0
.
src/arch/x86/faults.cc:177: warn: Looking up address for 0x7fff92868000
src/arch/x86/faults.cc:184: warn: Adding to CR2 address 0xbd000
src/arch/x86/tlb.cc:424: warn: TLB Message - Read the value from CR2: 0xbd000
src/arch/x86/tlb.cc:505: warn: TLB Message - Resetting CR2 back to 0x0
.
src/arch/x86/faults.cc:177: warn: Looking up address for 0x7fff926c8000
src/arch/x86/faults.cc:184: warn: Adding to CR2 address 0xbe000
src/arch/x86/tlb.cc:424: warn: TLB Message - Read the value from CR2: 0xbe000
src/arch/x86/tlb.cc:505: warn: TLB Message - Resetting CR2 back to 0x0
.
src/arch/x86/faults.cc:177: warn: Looking up address for 0x7fff926c9000
src/arch/x86/faults.cc:184: warn: Adding to CR2 address 0xbf000
src/arch/x86/tlb.cc:424: warn: TLB Message - Read the value from CR2: 0xbf000
src/arch/x86/tlb.cc:505: warn: TLB Message - Resetting CR2 back to 0x0
.
src/arch/x86/faults.cc:177: warn: Looking up address for 0x7fff92869008
src/arch/x86/faults.cc:184: warn: Adding to CR2 address 0xc0000
src/arch/x86/tlb.cc:424: warn: TLB Message - Read the value from CR2: 0xc0000
src/arch/x86/tlb.cc:505: warn: TLB Message - Resetting CR2 back to 0x0
.
src/arch/x86/faults.cc:177: warn: Looking up address for 0x7fff9286a4e0
src/arch/x86/faults.cc:184: warn: Adding to CR2 address 0xc1000
src/arch/x86/tlb.cc:424: warn: TLB Message - Read the value from CR2: 0xc1000
src/arch/x86/tlb.cc:505: warn: TLB Message - Resetting CR2 back to 0x0
.
src/arch/x86/faults.cc:177: warn: Looking up address for 0x7fff9286b318
src/arch/x86/faults.cc:184: warn: Adding to CR2 address 0xc2000
src/arch/x86/tlb.cc:424: warn: TLB Message - Read the value from CR2: 0xc2000
src/arch/x86/tlb.cc:505: warn: TLB Message - Resetting CR2 back to 0x0
.
src/arch/x86/faults.cc:177: warn: Looking up address for 0x7fff926ca000
src/arch/x86/faults.cc:184: warn: Adding to CR2 address 0xc3000
src/arch/x86/tlb.cc:424: warn: TLB Message - Read the value from CR2: 0xc3000
src/arch/x86/tlb.cc:505: warn: TLB Message - Resetting CR2 back to 0x0
.
src/arch/x86/faults.cc:177: warn: Looking up address for 0x7fff9286c008
src/arch/x86/faults.cc:184: warn: Adding to CR2 address 0xc4000
src/arch/x86/tlb.cc:424: warn: TLB Message - Read the value from CR2: 0xc4000
src/arch/x86/tlb.cc:505: warn: TLB Message - Resetting CR2 back to 0x0
.
src/arch/x86/faults.cc:177: warn: Looking up address for 0x7fff9286db68
src/arch/x86/faults.cc:184: warn: Adding to CR2 address 0xc5000
src/arch/x86/tlb.cc:424: warn: TLB Message - Read the value from CR2: 0xc5000
src/arch/x86/tlb.cc:505: warn: TLB Message - Resetting CR2 back to 0x0
.
src/arch/x86/faults.cc:177: warn: Looking up address for 0x7fff9286e038
src/arch/x86/faults.cc:184: warn: Adding to CR2 address 0xc6000
src/arch/x86/tlb.cc:424: warn: TLB Message - Read the value from CR2: 0xc6000
src/arch/x86/tlb.cc:505: warn: TLB Message - Resetting CR2 back to 0x0
.
src/arch/x86/faults.cc:177: warn: Looking up address for 0x7fff9286f5a0
src/arch/x86/faults.cc:184: warn: Adding to CR2 address 0xc7000
src/arch/x86/tlb.cc:424: warn: TLB Message - Read the value from CR2: 0xc7000
src/arch/x86/tlb.cc:505: warn: TLB Message - Resetting CR2 back to 0x0
.
src/arch/x86/faults.cc:177: warn: Looking up address for 0x7fff926cb000
src/arch/x86/faults.cc:184: warn: Adding to CR2 address 0xc8000
src/arch/x86/tlb.cc:424: warn: TLB Message - Read the value from CR2: 0xc8000
src/arch/x86/tlb.cc:505: warn: TLB Message - Resetting CR2 back to 0x0
.
src/arch/x86/faults.cc:177: warn: Looking up address for 0x7fff928716d0
src/arch/x86/faults.cc:184: warn: Adding to CR2 address 0xc9000
src/arch/x86/tlb.cc:424: warn: TLB Message - Read the value from CR2: 0xc9000
src/arch/x86/tlb.cc:505: warn: TLB Message - Resetting CR2 back to 0x0
.
src/arch/x86/faults.cc:177: warn: Looking up address for 0x7fff926c487a
src/arch/x86/faults.cc:184: warn: Adding to CR2 address 0xca000
src/arch/x86/tlb.cc:424: warn: TLB Message - Read the value from CR2: 0xca000
src/arch/x86/tlb.cc:505: warn: TLB Message - Resetting CR2 back to 0x0
.
src/arch/x86/faults.cc:177: warn: Looking up address for 0x7fff92666ffc
src/arch/x86/faults.cc:184: warn: Adding to CR2 address 0xcb000
src/arch/x86/tlb.cc:424: warn: TLB Message - Read the value from CR2: 0xcb000
src/arch/x86/tlb.cc:505: warn: TLB Message - Resetting CR2 back to 0x0
.
src/arch/x86/faults.cc:177: warn: Looking up address for 0x7fff92679fe7
src/arch/x86/faults.cc:184: warn: Adding to CR2 address 0xcc000
src/arch/x86/tlb.cc:424: warn: TLB Message - Read the value from CR2: 0xcc000
src/arch/x86/tlb.cc:505: warn: TLB Message - Resetting CR2 back to 0x0
.
src/arch/x86/faults.cc:177: warn: Looking up address for 0x7fff9267a000
src/arch/x86/faults.cc:184: warn: Adding to CR2 address 0xcd000
src/arch/x86/tlb.cc:424: warn: TLB Message - Read the value from CR2: 0xcd000
src/arch/x86/tlb.cc:505: warn: TLB Message - Resetting CR2 back to 0x0
.
src/arch/x86/faults.cc:177: warn: Looking up address for 0x7fff92667000
src/arch/x86/faults.cc:184: warn: Adding to CR2 address 0xce000
src/arch/x86/tlb.cc:424: warn: TLB Message - Read the value from CR2: 0xce000
src/arch/x86/tlb.cc:505: warn: TLB Message - Resetting CR2 back to 0x0
.
src/arch/x86/faults.cc:177: warn: Looking up address for 0x7fff926cc008
src/arch/x86/faults.cc:184: warn: Adding to CR2 address 0xcf000
src/arch/x86/tlb.cc:424: warn: TLB Message - Read the value from CR2: 0xcf000
src/arch/x86/tlb.cc:505: warn: TLB Message - Resetting CR2 back to 0x0
.
src/arch/x86/faults.cc:177: warn: Looking up address for 0x7fff926c515c
src/arch/x86/faults.cc:184: warn: Adding to CR2 address 0xd0000
src/arch/x86/tlb.cc:424: warn: TLB Message - Read the value from CR2: 0xd0000
src/arch/x86/tlb.cc:505: warn: TLB Message - Resetting CR2 back to 0x0
.
src/arch/x86/faults.cc:177: warn: Looking up address for 0x7fff9266da94
src/arch/x86/faults.cc:184: warn: Adding to CR2 address 0xd1000
src/arch/x86/tlb.cc:424: warn: TLB Message - Read the value from CR2: 0xd1000
src/arch/x86/tlb.cc:505: warn: TLB Message - Resetting CR2 back to 0x0
.
src/arch/x86/faults.cc:177: warn: Looking up address for 0x7fff9265b7c4
src/arch/x86/faults.cc:184: warn: Adding to CR2 address 0xd2000
src/arch/x86/tlb.cc:424: warn: TLB Message - Read the value from CR2: 0xd2000
src/arch/x86/tlb.cc:505: warn: TLB Message - Resetting CR2 back to 0x0
.
src/arch/x86/faults.cc:177: warn: Looking up address for 0x7fff926cd000
src/arch/x86/faults.cc:184: warn: Adding to CR2 address 0xd3000
src/arch/x86/tlb.cc:424: warn: TLB Message - Read the value from CR2: 0xd3000
src/arch/x86/tlb.cc:505: warn: TLB Message - Resetting CR2 back to 0x0
.
src/arch/x86/faults.cc:177: warn: Looking up address for 0x7fff92677d6c
src/arch/x86/faults.cc:184: warn: Adding to CR2 address 0xd4000
src/arch/x86/tlb.cc:424: warn: TLB Message - Read the value from CR2: 0xd4000
src/arch/x86/tlb.cc:505: warn: TLB Message - Resetting CR2 back to 0x0
.
src/arch/x86/faults.cc:177: warn: Looking up address for 0x7fff92662ed4
src/arch/x86/faults.cc:184: warn: Adding to CR2 address 0xd5000
src/arch/x86/tlb.cc:424: warn: TLB Message - Read the value from CR2: 0xd5000
src/arch/x86/tlb.cc:505: warn: TLB Message - Resetting CR2 back to 0x0
.
src/arch/x86/faults.cc:177: warn: Looking up address for 0x7fff9267242c
src/arch/x86/faults.cc:184: warn: Adding to CR2 address 0xd6000
src/arch/x86/tlb.cc:424: warn: TLB Message - Read the value from CR2: 0xd6000
src/arch/x86/tlb.cc:505: warn: TLB Message - Resetting CR2 back to 0x0
.
src/arch/x86/faults.cc:177: warn: Looking up address for 0x7fff9266429c
src/arch/x86/faults.cc:184: warn: Adding to CR2 address 0xd7000
src/arch/x86/tlb.cc:424: warn: TLB Message - Read the value from CR2: 0xd7000
src/arch/x86/tlb.cc:505: warn: TLB Message - Resetting CR2 back to 0x0
.
src/arch/x86/faults.cc:177: warn: Looking up address for 0x7fff92668c4c
src/arch/x86/faults.cc:184: warn: Adding to CR2 address 0xd8000
src/arch/x86/tlb.cc:424: warn: TLB Message - Read the value from CR2: 0xd8000
src/arch/x86/tlb.cc:505: warn: TLB Message - Resetting CR2 back to 0x0
.
src/arch/x86/faults.cc:177: warn: Looking up address for 0x7fff926565bc
src/arch/x86/faults.cc:184: warn: Adding to CR2 address 0xd9000
src/arch/x86/tlb.cc:424: warn: TLB Message - Read the value from CR2: 0xd9000
src/arch/x86/tlb.cc:505: warn: TLB Message - Resetting CR2 back to 0x0
.
src/arch/x86/faults.cc:177: warn: Looking up address for 0x7fff9265d63c
src/arch/x86/faults.cc:184: warn: Adding to CR2 address 0xda000
src/arch/x86/tlb.cc:424: warn: TLB Message - Read the value from CR2: 0xda000
src/arch/x86/tlb.cc:505: warn: TLB Message - Resetting CR2 back to 0x0
.
src/arch/x86/faults.cc:177: warn: Looking up address for 0x7fff92660024
src/arch/x86/faults.cc:184: warn: Adding to CR2 address 0xdb000
src/arch/x86/tlb.cc:424: warn: TLB Message - Read the value from CR2: 0xdb000
src/arch/x86/tlb.cc:505: warn: TLB Message - Resetting CR2 back to 0x0
.
src/arch/x86/faults.cc:177: warn: Looking up address for 0x7fff9266b904
src/arch/x86/faults.cc:184: warn: Adding to CR2 address 0xdc000
src/arch/x86/tlb.cc:424: warn: TLB Message - Read the value from CR2: 0xdc000
src/arch/x86/tlb.cc:505: warn: TLB Message - Resetting CR2 back to 0x0
.
src/arch/x86/faults.cc:177: warn: Looking up address for 0x7fff9265abac
src/arch/x86/faults.cc:184: warn: Adding to CR2 address 0xdd000
src/arch/x86/tlb.cc:424: warn: TLB Message - Read the value from CR2: 0xdd000
src/arch/x86/tlb.cc:505: warn: TLB Message - Resetting CR2 back to 0x0
.
src/arch/x86/faults.cc:177: warn: Looking up address for 0x7fff9265e9d4
src/arch/x86/faults.cc:184: warn: Adding to CR2 address 0xde000
src/arch/x86/tlb.cc:424: warn: TLB Message - Read the value from CR2: 0xde000
src/arch/x86/tlb.cc:505: warn: TLB Message - Resetting CR2 back to 0x0
.
src/arch/x86/faults.cc:177: warn: Looking up address for 0x7fff92673f2c
src/arch/x86/faults.cc:184: warn: Adding to CR2 address 0xdf000
src/arch/x86/tlb.cc:424: warn: TLB Message - Read the value from CR2: 0xdf000
src/arch/x86/tlb.cc:505: warn: TLB Message - Resetting CR2 back to 0x0
.
src/arch/x86/faults.cc:177: warn: Looking up address for 0x7fff9266159c
src/arch/x86/faults.cc:184: warn: Adding to CR2 address 0xe0000
src/arch/x86/tlb.cc:424: warn: TLB Message - Read the value from CR2: 0xe0000
src/arch/x86/tlb.cc:505: warn: TLB Message - Resetting CR2 back to 0x0
.
src/arch/x86/faults.cc:177: warn: Looking up address for 0x7fff92657d2c
src/arch/x86/faults.cc:184: warn: Adding to CR2 address 0xe1000
src/arch/x86/tlb.cc:424: warn: TLB Message - Read the value from CR2: 0xe1000
src/arch/x86/tlb.cc:505: warn: TLB Message - Resetting CR2 back to 0x0
.
src/arch/x86/faults.cc:177: warn: Looking up address for 0x7fff92663474
src/arch/x86/faults.cc:184: warn: Adding to CR2 address 0xe2000
src/arch/x86/tlb.cc:424: warn: TLB Message - Read the value from CR2: 0xe2000
src/arch/x86/tlb.cc:505: warn: TLB Message - Resetting CR2 back to 0x0
.
src/arch/x86/faults.cc:177: warn: Looking up address for 0x7fff92676a64
src/arch/x86/faults.cc:184: warn: Adding to CR2 address 0xe3000
src/arch/x86/tlb.cc:424: warn: TLB Message - Read the value from CR2: 0xe3000
src/arch/x86/tlb.cc:505: warn: TLB Message - Resetting CR2 back to 0x0
.
src/arch/x86/faults.cc:177: warn: Looking up address for 0x7fff92665d0c
src/arch/x86/faults.cc:184: warn: Adding to CR2 address 0xe4000
src/arch/x86/tlb.cc:424: warn: TLB Message - Read the value from CR2: 0xe4000
src/arch/x86/tlb.cc:505: warn: TLB Message - Resetting CR2 back to 0x0
.
src/arch/x86/faults.cc:177: warn: Looking up address for 0x7fff92678204
src/arch/x86/faults.cc:184: warn: Adding to CR2 address 0xe5000
src/arch/x86/tlb.cc:424: warn: TLB Message - Read the value from CR2: 0xe5000
src/arch/x86/tlb.cc:505: warn: TLB Message - Resetting CR2 back to 0x0
.
src/arch/x86/faults.cc:177: warn: Looking up address for 0x7fff926ce000
src/arch/x86/faults.cc:184: warn: Adding to CR2 address 0xe6000
src/arch/x86/tlb.cc:424: warn: TLB Message - Read the value from CR2: 0xe6000
src/arch/x86/tlb.cc:505: warn: TLB Message - Resetting CR2 back to 0x0
.
src/arch/x86/faults.cc:177: warn: Looking up address for 0x7fff926710ac
src/arch/x86/faults.cc:184: warn: Adding to CR2 address 0xe7000
src/arch/x86/tlb.cc:424: warn: TLB Message - Read the value from CR2: 0xe7000
src/arch/x86/tlb.cc:505: warn: TLB Message - Resetting CR2 back to 0x0
.
src/arch/x86/faults.cc:177: warn: Looking up address for 0x7fff926693cc
src/arch/x86/faults.cc:184: warn: Adding to CR2 address 0xe8000
src/arch/x86/tlb.cc:424: warn: TLB Message - Read the value from CR2: 0xe8000
src/arch/x86/tlb.cc:505: warn: TLB Message - Resetting CR2 back to 0x0
.
src/arch/x86/faults.cc:177: warn: Looking up address for 0x7fff9266ef94
src/arch/x86/faults.cc:184: warn: Adding to CR2 address 0xe9000
src/arch/x86/tlb.cc:424: warn: TLB Message - Read the value from CR2: 0xe9000
src/arch/x86/tlb.cc:505: warn: TLB Message - Resetting CR2 back to 0x0
.
src/arch/x86/faults.cc:177: warn: Looking up address for 0x7fff9265c0f4
src/arch/x86/faults.cc:184: warn: Adding to CR2 address 0xea000
src/arch/x86/tlb.cc:424: warn: TLB Message - Read the value from CR2: 0xea000
src/arch/x86/tlb.cc:505: warn: TLB Message - Resetting CR2 back to 0x0
.
src/arch/x86/faults.cc:177: warn: Looking up address for 0x7fff92675dbc
src/arch/x86/faults.cc:184: warn: Adding to CR2 address 0xeb000
src/arch/x86/tlb.cc:424: warn: TLB Message - Read the value from CR2: 0xeb000
src/arch/x86/tlb.cc:505: warn: TLB Message - Resetting CR2 back to 0x0
.
src/arch/x86/faults.cc:177: warn: Looking up address for 0x7fff92659bec
src/arch/x86/faults.cc:184: warn: Adding to CR2 address 0xec000
src/arch/x86/tlb.cc:424: warn: TLB Message - Read the value from CR2: 0xec000
src/arch/x86/tlb.cc:505: warn: TLB Message - Resetting CR2 back to 0x0
.
src/arch/x86/faults.cc:177: warn: Looking up address for 0x7fff9266a854
src/arch/x86/faults.cc:184: warn: Adding to CR2 address 0xed000
src/arch/x86/tlb.cc:424: warn: TLB Message - Read the value from CR2: 0xed000
src/arch/x86/tlb.cc:505: warn: TLB Message - Resetting CR2 back to 0x0
.
src/arch/x86/faults.cc:177: warn: Looking up address for 0x7fff9266c444
src/arch/x86/faults.cc:184: warn: Adding to CR2 address 0xee000
src/arch/x86/tlb.cc:424: warn: TLB Message - Read the value from CR2: 0xee000
src/arch/x86/tlb.cc:505: warn: TLB Message - Resetting CR2 back to 0x0
.
src/arch/x86/faults.cc:177: warn: Looking up address for 0x7fff92670eb4
src/arch/x86/faults.cc:184: warn: Adding to CR2 address 0xef000
src/arch/x86/tlb.cc:424: warn: TLB Message - Read the value from CR2: 0xef000
src/arch/x86/tlb.cc:505: warn: TLB Message - Resetting CR2 back to 0x0
.
src/arch/x86/faults.cc:177: warn: Looking up address for 0x7fff9267b0e9
src/arch/x86/faults.cc:184: warn: Adding to CR2 address 0xf0000
src/arch/x86/tlb.cc:424: warn: TLB Message - Read the value from CR2: 0xf0000
src/arch/x86/tlb.cc:505: warn: TLB Message - Resetting CR2 back to 0x0
.
src/arch/x86/faults.cc:177: warn: Looking up address for 0x7fff926cf008
src/arch/x86/faults.cc:184: warn: Adding to CR2 address 0xf1000
src/arch/x86/tlb.cc:424: warn: TLB Message - Read the value from CR2: 0xf1000
src/arch/x86/tlb.cc:505: warn: TLB Message - Resetting CR2 back to 0x0
.
src/arch/x86/faults.cc:177: warn: Looking up address for 0x7fff9267c215
src/arch/x86/faults.cc:184: warn: Adding to CR2 address 0xf2000
src/arch/x86/tlb.cc:424: warn: TLB Message - Read the value from CR2: 0xf2000
src/arch/x86/tlb.cc:505: warn: TLB Message - Resetting CR2 back to 0x0
.
src/arch/x86/faults.cc:177: warn: Looking up address for 0x7fff9266f4d4
src/arch/x86/faults.cc:184: warn: Adding to CR2 address 0xf3000
src/arch/x86/tlb.cc:424: warn: TLB Message - Read the value from CR2: 0xf3000
src/arch/x86/tlb.cc:505: warn: TLB Message - Resetting CR2 back to 0x0
.
src/arch/x86/faults.cc:177: warn: Looking up address for 0x7fff9267d348
src/arch/x86/faults.cc:184: warn: Adding to CR2 address 0xf4000
src/arch/x86/tlb.cc:424: warn: TLB Message - Read the value from CR2: 0xf4000
src/arch/x86/tlb.cc:505: warn: TLB Message - Resetting CR2 back to 0x0
.
src/arch/x86/faults.cc:177: warn: Looking up address for 0x7fff9265808c
src/arch/x86/faults.cc:184: warn: Adding to CR2 address 0xf5000
src/arch/x86/tlb.cc:424: warn: TLB Message - Read the value from CR2: 0xf5000
src/arch/x86/tlb.cc:505: warn: TLB Message - Resetting CR2 back to 0x0
.
src/arch/x86/faults.cc:177: warn: Looking up address for 0x7fff9265f214
src/arch/x86/faults.cc:184: warn: Adding to CR2 address 0xf6000
src/arch/x86/tlb.cc:424: warn: TLB Message - Read the value from CR2: 0xf6000
src/arch/x86/tlb.cc:505: warn: TLB Message - Resetting CR2 back to 0x0
.
src/arch/x86/faults.cc:177: warn: Looking up address for 0x7fff926d0000
src/arch/x86/faults.cc:184: warn: Adding to CR2 address 0xf7000
src/arch/x86/tlb.cc:424: warn: TLB Message - Read the value from CR2: 0xf7000
src/arch/x86/tlb.cc:505: warn: TLB Message - Resetting CR2 back to 0x0
.
src/arch/x86/faults.cc:177: warn: Looking up address for 0x7fff92674004
src/arch/x86/faults.cc:184: warn: Adding to CR2 address 0xf8000
src/arch/x86/tlb.cc:424: warn: TLB Message - Read the value from CR2: 0xf8000
src/arch/x86/tlb.cc:505: warn: TLB Message - Resetting CR2 back to 0x0
.
src/arch/x86/faults.cc:177: warn: Looking up address for 0x7fff9267e5dd
src/arch/x86/faults.cc:184: warn: Adding to CR2 address 0xf9000
src/arch/x86/tlb.cc:424: warn: TLB Message - Read the value from CR2: 0xf9000
src/arch/x86/tlb.cc:505: warn: TLB Message - Resetting CR2 back to 0x0
.
src/arch/x86/faults.cc:177: warn: Looking up address for 0x7fff9267f0b6
src/arch/x86/faults.cc:184: warn: Adding to CR2 address 0xfa000
src/arch/x86/tlb.cc:424: warn: TLB Message - Read the value from CR2: 0xfa000
src/arch/x86/tlb.cc:505: warn: TLB Message - Resetting CR2 back to 0x0
.
src/arch/x86/faults.cc:177: warn: Looking up address for 0x7fff923192c8
src/arch/x86/faults.cc:184: warn: Adding to CR2 address 0xfb000
src/arch/x86/tlb.cc:424: warn: TLB Message - Read the value from CR2: 0xfb000
src/arch/x86/tlb.cc:505: warn: TLB Message - Resetting CR2 back to 0x0
.
src/arch/x86/faults.cc:177: warn: Looking up address for 0x7fff92680000
src/arch/x86/faults.cc:184: warn: Adding to CR2 address 0xfc000
src/arch/x86/tlb.cc:424: warn: TLB Message - Read the value from CR2: 0xfc000
src/arch/x86/tlb.cc:505: warn: TLB Message - Resetting CR2 back to 0x0
.
src/arch/x86/faults.cc:177: warn: Looking up address for 0x7fff926d1000
src/arch/x86/faults.cc:184: warn: Adding to CR2 address 0xfd000
src/arch/x86/tlb.cc:424: warn: TLB Message - Read the value from CR2: 0xfd000
src/arch/x86/tlb.cc:505: warn: TLB Message - Resetting CR2 back to 0x0
.
src/arch/x86/faults.cc:177: warn: Looking up address for 0x7fff92655088
src/arch/x86/faults.cc:184: warn: Adding to CR2 address 0xfe000
src/arch/x86/tlb.cc:424: warn: TLB Message - Read the value from CR2: 0xfe000
src/arch/x86/tlb.cc:505: warn: TLB Message - Resetting CR2 back to 0x0
.
src/arch/x86/faults.cc:177: warn: Looking up address for 0x7fff92681516
src/arch/x86/faults.cc:184: warn: Adding to CR2 address 0xff000
src/arch/x86/tlb.cc:424: warn: TLB Message - Read the value from CR2: 0xff000
src/arch/x86/tlb.cc:505: warn: TLB Message - Resetting CR2 back to 0x0
.
src/arch/x86/faults.cc:177: warn: Looking up address for 0x7fff926d2008
src/arch/x86/faults.cc:184: warn: Adding to CR2 address 0x100000
src/arch/x86/tlb.cc:424: warn: TLB Message - Read the value from CR2: 0x100000
src/arch/x86/tlb.cc:505: warn: TLB Message - Resetting CR2 back to 0x0
.
src/arch/x86/faults.cc:177: warn: Looking up address for 0x7fff9268224f
src/arch/x86/faults.cc:184: warn: Adding to CR2 address 0x101000
src/arch/x86/tlb.cc:424: warn: TLB Message - Read the value from CR2: 0x101000
src/arch/x86/tlb.cc:505: warn: TLB Message - Resetting CR2 back to 0x0
.
src/arch/x86/faults.cc:177: warn: Looking up address for 0x7fff92685d9f
src/arch/x86/faults.cc:184: warn: Adding to CR2 address 0x102000
src/arch/x86/tlb.cc:424: warn: TLB Message - Read the value from CR2: 0x102000
src/arch/x86/tlb.cc:505: warn: TLB Message - Resetting CR2 back to 0x0
.
src/arch/x86/faults.cc:177: warn: Looking up address for 0x7fff926d3000
src/arch/x86/faults.cc:184: warn: Adding to CR2 address 0x103000
src/arch/x86/tlb.cc:424: warn: TLB Message - Read the value from CR2: 0x103000
src/arch/x86/tlb.cc:505: warn: TLB Message - Resetting CR2 back to 0x0
.
src/arch/x86/faults.cc:177: warn: Looking up address for 0x7fff92686000
src/arch/x86/faults.cc:184: warn: Adding to CR2 address 0x104000
src/arch/x86/tlb.cc:424: warn: TLB Message - Read the value from CR2: 0x104000
src/arch/x86/tlb.cc:505: warn: TLB Message - Resetting CR2 back to 0x0
.
src/arch/x86/faults.cc:177: warn: Looking up address for 0x7fff92684c6d
src/arch/x86/faults.cc:184: warn: Adding to CR2 address 0x105000
src/arch/x86/tlb.cc:424: warn: TLB Message - Read the value from CR2: 0x105000
src/arch/x86/tlb.cc:505: warn: TLB Message - Resetting CR2 back to 0x0
.
src/arch/x86/faults.cc:177: warn: Looking up address for 0x7fff926d4000
src/arch/x86/faults.cc:184: warn: Adding to CR2 address 0x106000
src/arch/x86/tlb.cc:424: warn: TLB Message - Read the value from CR2: 0x106000
src/arch/x86/tlb.cc:505: warn: TLB Message - Resetting CR2 back to 0x0
.
src/arch/x86/faults.cc:177: warn: Looking up address for 0x7fff9268735d
src/arch/x86/faults.cc:184: warn: Adding to CR2 address 0x107000
src/arch/x86/tlb.cc:424: warn: TLB Message - Read the value from CR2: 0x107000
src/arch/x86/tlb.cc:505: warn: TLB Message - Resetting CR2 back to 0x0
.
src/arch/x86/faults.cc:177: warn: Looking up address for 0x7fff9268830b
src/arch/x86/faults.cc:184: warn: Adding to CR2 address 0x108000
src/arch/x86/tlb.cc:424: warn: TLB Message - Read the value from CR2: 0x108000
src/arch/x86/tlb.cc:505: warn: TLB Message - Resetting CR2 back to 0x0
.
src/arch/x86/faults.cc:177: warn: Looking up address for 0x7fff9268dab0
src/arch/x86/faults.cc:184: warn: Adding to CR2 address 0x109000
src/arch/x86/tlb.cc:424: warn: TLB Message - Read the value from CR2: 0x109000
src/arch/x86/tlb.cc:505: warn: TLB Message - Resetting CR2 back to 0x0
.
src/arch/x86/faults.cc:177: warn: Looking up address for 0x7fff9268e338
src/arch/x86/faults.cc:184: warn: Adding to CR2 address 0x10a000
src/arch/x86/tlb.cc:424: warn: TLB Message - Read the value from CR2: 0x10a000
src/arch/x86/tlb.cc:505: warn: TLB Message - Resetting CR2 back to 0x0
.
src/arch/x86/faults.cc:177: warn: Looking up address for 0x7fff926d5008
src/arch/x86/faults.cc:184: warn: Adding to CR2 address 0x10b000
src/arch/x86/tlb.cc:424: warn: TLB Message - Read the value from CR2: 0x10b000
src/arch/x86/tlb.cc:505: warn: TLB Message - Resetting CR2 back to 0x0
.
src/arch/x86/faults.cc:177: warn: Looking up address for 0x7fff926d6000
src/arch/x86/faults.cc:184: warn: Adding to CR2 address 0x10c000
src/arch/x86/tlb.cc:424: warn: TLB Message - Read the value from CR2: 0x10c000
src/arch/x86/tlb.cc:505: warn: TLB Message - Resetting CR2 back to 0x0
.
src/arch/x86/faults.cc:177: warn: Looking up address for 0x7fff9268f0d6
src/arch/x86/faults.cc:184: warn: Adding to CR2 address 0x10d000
src/arch/x86/tlb.cc:424: warn: TLB Message - Read the value from CR2: 0x10d000
src/arch/x86/tlb.cc:505: warn: TLB Message - Resetting CR2 back to 0x0
.
src/arch/x86/faults.cc:177: warn: Looking up address for 0x7fff926d7000
src/arch/x86/faults.cc:184: warn: Adding to CR2 address 0x10e000
src/arch/x86/tlb.cc:424: warn: TLB Message - Read the value from CR2: 0x10e000
src/arch/x86/tlb.cc:505: warn: TLB Message - Resetting CR2 back to 0x0
.
src/arch/x86/faults.cc:177: warn: Looking up address for 0x7fff926905b2
src/arch/x86/faults.cc:184: warn: Adding to CR2 address 0x10f000
src/arch/x86/tlb.cc:424: warn: TLB Message - Read the value from CR2: 0x10f000
src/arch/x86/tlb.cc:505: warn: TLB Message - Resetting CR2 back to 0x0
.
src/arch/x86/faults.cc:177: warn: Looking up address for 0x7fff92693b96
src/arch/x86/faults.cc:184: warn: Adding to CR2 address 0x110000
src/arch/x86/tlb.cc:424: warn: TLB Message - Read the value from CR2: 0x110000
src/arch/x86/tlb.cc:505: warn: TLB Message - Resetting CR2 back to 0x0
.
src/arch/x86/faults.cc:177: warn: Looking up address for 0x7fff926d8008
src/arch/x86/faults.cc:184: warn: Adding to CR2 address 0x111000
src/arch/x86/tlb.cc:424: warn: TLB Message - Read the value from CR2: 0x111000
src/arch/x86/tlb.cc:505: warn: TLB Message - Resetting CR2 back to 0x0
.
src/arch/x86/faults.cc:177: warn: Looking up address for 0x7fff926910e5
src/arch/x86/faults.cc:184: warn: Adding to CR2 address 0x112000
src/arch/x86/tlb.cc:424: warn: TLB Message - Read the value from CR2: 0x112000
src/arch/x86/tlb.cc:505: warn: TLB Message - Resetting CR2 back to 0x0
.
src/arch/x86/faults.cc:177: warn: Looking up address for 0x7fff92694000
src/arch/x86/faults.cc:184: warn: Adding to CR2 address 0x113000
src/arch/x86/tlb.cc:424: warn: TLB Message - Read the value from CR2: 0x113000
src/arch/x86/tlb.cc:505: warn: TLB Message - Resetting CR2 back to 0x0
.
src/arch/x86/faults.cc:177: warn: Looking up address for 0x7fff92692d6a
src/arch/x86/faults.cc:184: warn: Adding to CR2 address 0x114000
src/arch/x86/tlb.cc:424: warn: TLB Message - Read the value from CR2: 0x114000
src/arch/x86/tlb.cc:505: warn: TLB Message - Resetting CR2 back to 0x0
.
src/arch/x86/faults.cc:177: warn: Looking up address for 0x7fff9269aec6
src/arch/x86/faults.cc:184: warn: Adding to CR2 address 0x115000
src/arch/x86/tlb.cc:424: warn: TLB Message - Read the value from CR2: 0x115000
src/arch/x86/tlb.cc:505: warn: TLB Message - Resetting CR2 back to 0x0
.
src/arch/x86/faults.cc:177: warn: Looking up address for 0x7fff9269b005
src/arch/x86/faults.cc:184: warn: Adding to CR2 address 0x116000
src/arch/x86/tlb.cc:424: warn: TLB Message - Read the value from CR2: 0x116000
src/arch/x86/tlb.cc:505: warn: TLB Message - Resetting CR2 back to 0x0
.
src/arch/x86/faults.cc:177: warn: Looking up address for 0x7fff92697fa3
src/arch/x86/faults.cc:184: warn: Adding to CR2 address 0x117000
src/arch/x86/tlb.cc:424: warn: TLB Message - Read the value from CR2: 0x117000
src/arch/x86/tlb.cc:505: warn: TLB Message - Resetting CR2 back to 0x0
.
src/arch/x86/faults.cc:177: warn: Looking up address for 0x7fff926980fa
src/arch/x86/faults.cc:184: warn: Adding to CR2 address 0x118000
src/arch/x86/tlb.cc:424: warn: TLB Message - Read the value from CR2: 0x118000
src/arch/x86/tlb.cc:505: warn: TLB Message - Resetting CR2 back to 0x0
.
src/arch/x86/faults.cc:177: warn: Looking up address for 0x7fff926d9000
src/arch/x86/faults.cc:184: warn: Adding to CR2 address 0x119000
src/arch/x86/tlb.cc:424: warn: TLB Message - Read the value from CR2: 0x119000
src/arch/x86/tlb.cc:505: warn: TLB Message - Resetting CR2 back to 0x0
.
src/arch/x86/faults.cc:177: warn: Looking up address for 0x7fff92699d9c
src/arch/x86/faults.cc:184: warn: Adding to CR2 address 0x11a000
src/arch/x86/tlb.cc:424: warn: TLB Message - Read the value from CR2: 0x11a000
src/arch/x86/tlb.cc:505: warn: TLB Message - Resetting CR2 back to 0x0
.
src/arch/x86/faults.cc:177: warn: Looking up address for 0x7fff9269e770
src/arch/x86/faults.cc:184: warn: Adding to CR2 address 0x11b000
src/arch/x86/tlb.cc:424: warn: TLB Message - Read the value from CR2: 0x11b000
src/arch/x86/tlb.cc:505: warn: TLB Message - Resetting CR2 back to 0x0
.
src/arch/x86/faults.cc:177: warn: Looking up address for 0x7fff9269c1fc
src/arch/x86/faults.cc:184: warn: Adding to CR2 address 0x11c000
src/arch/x86/tlb.cc:424: warn: TLB Message - Read the value from CR2: 0x11c000
src/arch/x86/tlb.cc:505: warn: TLB Message - Resetting CR2 back to 0x0
.
src/arch/x86/faults.cc:177: warn: Looking up address for 0x7fff9269d81f
src/arch/x86/faults.cc:184: warn: Adding to CR2 address 0x11d000
src/arch/x86/tlb.cc:424: warn: TLB Message - Read the value from CR2: 0x11d000
src/arch/x86/tlb.cc:505: warn: TLB Message - Resetting CR2 back to 0x0
.
src/arch/x86/faults.cc:177: warn: Looking up address for 0x7fff9269f76a
src/arch/x86/faults.cc:184: warn: Adding to CR2 address 0x11e000
src/arch/x86/tlb.cc:424: warn: TLB Message - Read the value from CR2: 0x11e000
src/arch/x86/tlb.cc:505: warn: TLB Message - Resetting CR2 back to 0x0
.
src/arch/x86/faults.cc:177: warn: Looking up address for 0x7fff926da000
src/arch/x86/faults.cc:184: warn: Adding to CR2 address 0x11f000
src/arch/x86/tlb.cc:424: warn: TLB Message - Read the value from CR2: 0x11f000
src/arch/x86/tlb.cc:505: warn: TLB Message - Resetting CR2 back to 0x0
.
src/arch/x86/faults.cc:177: warn: Looking up address for 0x7fff926a23ec
src/arch/x86/faults.cc:184: warn: Adding to CR2 address 0x120000
src/arch/x86/tlb.cc:424: warn: TLB Message - Read the value from CR2: 0x120000
src/arch/x86/tlb.cc:505: warn: TLB Message - Resetting CR2 back to 0x0
.
src/arch/x86/faults.cc:177: warn: Looking up address for 0x7fff926a13f8
src/arch/x86/faults.cc:184: warn: Adding to CR2 address 0x121000
src/arch/x86/tlb.cc:424: warn: TLB Message - Read the value from CR2: 0x121000
src/arch/x86/tlb.cc:505: warn: TLB Message - Resetting CR2 back to 0x0
.
src/arch/x86/faults.cc:177: warn: Looking up address for 0x7fff926a3479
src/arch/x86/faults.cc:184: warn: Adding to CR2 address 0x122000
src/arch/x86/tlb.cc:424: warn: TLB Message - Read the value from CR2: 0x122000
src/arch/x86/tlb.cc:505: warn: TLB Message - Resetting CR2 back to 0x0
.
src/arch/x86/faults.cc:177: warn: Looking up address for 0x7fff926a4f6b
src/arch/x86/faults.cc:184: warn: Adding to CR2 address 0x123000
src/arch/x86/tlb.cc:424: warn: TLB Message - Read the value from CR2: 0x123000
src/arch/x86/tlb.cc:505: warn: TLB Message - Resetting CR2 back to 0x0
.
src/arch/x86/faults.cc:177: warn: Looking up address for 0x7fff926db008
src/arch/x86/faults.cc:184: warn: Adding to CR2 address 0x124000
src/arch/x86/tlb.cc:424: warn: TLB Message - Read the value from CR2: 0x124000
src/arch/x86/tlb.cc:505: warn: TLB Message - Resetting CR2 back to 0x0
.
src/arch/x86/faults.cc:177: warn: Looking up address for 0x7fff926a9b96
src/arch/x86/faults.cc:184: warn: Adding to CR2 address 0x125000
src/arch/x86/tlb.cc:424: warn: TLB Message - Read the value from CR2: 0x125000
src/arch/x86/tlb.cc:505: warn: TLB Message - Resetting CR2 back to 0x0
.
src/arch/x86/faults.cc:177: warn: Looking up address for 0x7fff926a7c06
src/arch/x86/faults.cc:184: warn: Adding to CR2 address 0x126000
src/arch/x86/tlb.cc:424: warn: TLB Message - Read the value from CR2: 0x126000
src/arch/x86/tlb.cc:505: warn: TLB Message - Resetting CR2 back to 0x0
.
src/arch/x86/faults.cc:177: warn: Looking up address for 0x7fff926aa000
src/arch/x86/faults.cc:184: warn: Adding to CR2 address 0x127000
src/arch/x86/tlb.cc:424: warn: TLB Message - Read the value from CR2: 0x127000
src/arch/x86/tlb.cc:505: warn: TLB Message - Resetting CR2 back to 0x0
.
src/arch/x86/faults.cc:177: warn: Looking up address for 0x7fff926a5883
src/arch/x86/faults.cc:184: warn: Adding to CR2 address 0x128000
src/arch/x86/tlb.cc:424: warn: TLB Message - Read the value from CR2: 0x128000
src/arch/x86/tlb.cc:505: warn: TLB Message - Resetting CR2 back to 0x0
.
src/arch/x86/faults.cc:177: warn: Looking up address for 0x7fff926a89a8
src/arch/x86/faults.cc:184: warn: Adding to CR2 address 0x129000
src/arch/x86/tlb.cc:424: warn: TLB Message - Read the value from CR2: 0x129000
src/arch/x86/tlb.cc:505: warn: TLB Message - Resetting CR2 back to 0x0
.
src/arch/x86/faults.cc:177: warn: Looking up address for 0x7fff926ab65f
src/arch/x86/faults.cc:184: warn: Adding to CR2 address 0x12a000
src/arch/x86/tlb.cc:424: warn: TLB Message - Read the value from CR2: 0x12a000
src/arch/x86/tlb.cc:505: warn: TLB Message - Resetting CR2 back to 0x0
.
src/arch/x86/faults.cc:177: warn: Looking up address for 0x7fff926aea7d
src/arch/x86/faults.cc:184: warn: Adding to CR2 address 0x12b000
src/arch/x86/tlb.cc:424: warn: TLB Message - Read the value from CR2: 0x12b000
src/arch/x86/tlb.cc:505: warn: TLB Message - Resetting CR2 back to 0x0
.
src/arch/x86/faults.cc:177: warn: Looking up address for 0x7fff926ac3bf
src/arch/x86/faults.cc:184: warn: Adding to CR2 address 0x12c000
src/arch/x86/tlb.cc:424: warn: TLB Message - Read the value from CR2: 0x12c000
src/arch/x86/tlb.cc:505: warn: TLB Message - Resetting CR2 back to 0x0
.
src/arch/x86/faults.cc:177: warn: Looking up address for 0x7fff926dc000
src/arch/x86/faults.cc:184: warn: Adding to CR2 address 0x12d000
src/arch/x86/tlb.cc:424: warn: TLB Message - Read the value from CR2: 0x12d000
src/arch/x86/tlb.cc:505: warn: TLB Message - Resetting CR2 back to 0x0
.
src/arch/x86/faults.cc:177: warn: Looking up address for 0x7fff926ad8ab
src/arch/x86/faults.cc:184: warn: Adding to CR2 address 0x12e000
src/arch/x86/tlb.cc:424: warn: TLB Message - Read the value from CR2: 0x12e000
src/arch/x86/tlb.cc:505: warn: TLB Message - Resetting CR2 back to 0x0
.
src/arch/x86/faults.cc:177: warn: Looking up address for 0x7fff926b0179
src/arch/x86/faults.cc:184: warn: Adding to CR2 address 0x12f000
src/arch/x86/tlb.cc:424: warn: TLB Message - Read the value from CR2: 0x12f000
src/arch/x86/tlb.cc:505: warn: TLB Message - Resetting CR2 back to 0x0
.
src/arch/x86/faults.cc:177: warn: Looking up address for 0x7fff926af1cd
src/arch/x86/faults.cc:184: warn: Adding to CR2 address 0x130000
src/arch/x86/tlb.cc:424: warn: TLB Message - Read the value from CR2: 0x130000
src/arch/x86/tlb.cc:505: warn: TLB Message - Resetting CR2 back to 0x0
.
src/arch/x86/faults.cc:177: warn: Looking up address for 0x7fff926b82fd
src/arch/x86/faults.cc:184: warn: Adding to CR2 address 0x131000
src/arch/x86/tlb.cc:424: warn: TLB Message - Read the value from CR2: 0x131000
src/arch/x86/tlb.cc:505: warn: TLB Message - Resetting CR2 back to 0x0
.
src/arch/x86/faults.cc:177: warn: Looking up address for 0x7fff926b6341
src/arch/x86/faults.cc:184: warn: Adding to CR2 address 0x132000
src/arch/x86/tlb.cc:424: warn: TLB Message - Read the value from CR2: 0x132000
src/arch/x86/tlb.cc:505: warn: TLB Message - Resetting CR2 back to 0x0
.
src/arch/x86/faults.cc:177: warn: Looking up address for 0x7fff926b3f74
src/arch/x86/faults.cc:184: warn: Adding to CR2 address 0x133000
src/arch/x86/tlb.cc:424: warn: TLB Message - Read the value from CR2: 0x133000
src/arch/x86/tlb.cc:505: warn: TLB Message - Resetting CR2 back to 0x0
.
src/arch/x86/faults.cc:177: warn: Looking up address for 0x7fff926b415d
src/arch/x86/faults.cc:184: warn: Adding to CR2 address 0x134000
src/arch/x86/tlb.cc:424: warn: TLB Message - Read the value from CR2: 0x134000
src/arch/x86/tlb.cc:505: warn: TLB Message - Resetting CR2 back to 0x0
.
src/arch/x86/faults.cc:177: warn: Looking up address for 0x7fff926b7104
src/arch/x86/faults.cc:184: warn: Adding to CR2 address 0x135000
src/arch/x86/tlb.cc:424: warn: TLB Message - Read the value from CR2: 0x135000
src/arch/x86/tlb.cc:505: warn: TLB Message - Resetting CR2 back to 0x0
.
src/arch/x86/faults.cc:177: warn: Looking up address for 0x7fff926dd000
src/arch/x86/faults.cc:184: warn: Adding to CR2 address 0x136000
src/arch/x86/tlb.cc:424: warn: TLB Message - Read the value from CR2: 0x136000
src/arch/x86/tlb.cc:505: warn: TLB Message - Resetting CR2 back to 0x0
.
src/arch/x86/faults.cc:177: warn: Looking up address for 0x7fff926bbfa3
src/arch/x86/faults.cc:184: warn: Adding to CR2 address 0x137000
src/arch/x86/tlb.cc:424: warn: TLB Message - Read the value from CR2: 0x137000
src/arch/x86/tlb.cc:505: warn: TLB Message - Resetting CR2 back to 0x0
.
src/arch/x86/faults.cc:177: warn: Looking up address for 0x7fff926bca59
src/arch/x86/faults.cc:184: warn: Adding to CR2 address 0x138000
src/arch/x86/tlb.cc:424: warn: TLB Message - Read the value from CR2: 0x138000
src/arch/x86/tlb.cc:505: warn: TLB Message - Resetting CR2 back to 0x0
.
src/arch/x86/faults.cc:177: warn: Looking up address for 0x7fff926be321
src/arch/x86/faults.cc:184: warn: Adding to CR2 address 0x139000
src/arch/x86/tlb.cc:424: warn: TLB Message - Read the value from CR2: 0x139000
src/arch/x86/tlb.cc:505: warn: TLB Message - Resetting CR2 back to 0x0
.
src/arch/x86/faults.cc:177: warn: Looking up address for 0x7fff926bf3f2
src/arch/x86/faults.cc:184: warn: Adding to CR2 address 0x13a000
src/arch/x86/tlb.cc:424: warn: TLB Message - Read the value from CR2: 0x13a000
src/arch/x86/tlb.cc:505: warn: TLB Message - Resetting CR2 back to 0x0
.
src/arch/x86/faults.cc:177: warn: Looking up address for 0x7fff926c0946
src/arch/x86/faults.cc:184: warn: Adding to CR2 address 0x13b000
src/arch/x86/tlb.cc:424: warn: TLB Message - Read the value from CR2: 0x13b000
src/arch/x86/tlb.cc:505: warn: TLB Message - Resetting CR2 back to 0x0
.
src/arch/x86/faults.cc:177: warn: Looking up address for 0x7fff9231a6e8
src/arch/x86/faults.cc:184: warn: Adding to CR2 address 0x13c000
src/arch/x86/tlb.cc:424: warn: TLB Message - Read the value from CR2: 0x13c000
src/arch/x86/tlb.cc:505: warn: TLB Message - Resetting CR2 back to 0x0
.
src/arch/x86/faults.cc:177: warn: Looking up address for 0x7fff926de008
src/arch/x86/faults.cc:184: warn: Adding to CR2 address 0x13d000
src/arch/x86/tlb.cc:424: warn: TLB Message - Read the value from CR2: 0x13d000
src/arch/x86/tlb.cc:505: warn: TLB Message - Resetting CR2 back to 0x0
.
src/arch/x86/faults.cc:177: warn: Looking up address for 0x7fff926b5b68
src/arch/x86/faults.cc:184: warn: Adding to CR2 address 0x13e000
src/arch/x86/tlb.cc:424: warn: TLB Message - Read the value from CR2: 0x13e000
src/arch/x86/tlb.cc:505: warn: TLB Message - Resetting CR2 back to 0x0
.
src/arch/x86/faults.cc:177: warn: Looking up address for 0x7fff926df010
src/arch/x86/faults.cc:184: warn: Adding to CR2 address 0x13f000
src/arch/x86/tlb.cc:424: warn: TLB Message - Read the value from CR2: 0x13f000
src/arch/x86/tlb.cc:505: warn: TLB Message - Resetting CR2 back to 0x0
.
src/arch/x86/faults.cc:177: warn: Looking up address for 0x7fff926e0000
src/arch/x86/faults.cc:184: warn: Adding to CR2 address 0x140000
src/arch/x86/tlb.cc:424: warn: TLB Message - Read the value from CR2: 0x140000
src/arch/x86/tlb.cc:505: warn: TLB Message - Resetting CR2 back to 0x0
.
src/arch/x86/faults.cc:177: warn: Looking up address for 0x7fff926e1008
src/arch/x86/faults.cc:184: warn: Adding to CR2 address 0x141000
src/arch/x86/tlb.cc:424: warn: TLB Message - Read the value from CR2: 0x141000
src/arch/x86/tlb.cc:505: warn: TLB Message - Resetting CR2 back to 0x0
.
src/arch/x86/faults.cc:177: warn: Looking up address for 0x7fff92873000
src/arch/x86/faults.cc:184: warn: Adding to CR2 address 0x142000
src/arch/x86/tlb.cc:424: warn: TLB Message - Read the value from CR2: 0x142000
src/arch/x86/tlb.cc:505: warn: TLB Message - Resetting CR2 back to 0x0
.
src/arch/x86/faults.cc:177: warn: Looking up address for 0x7fff926e2010
src/arch/x86/faults.cc:184: warn: Adding to CR2 address 0x143000
src/arch/x86/tlb.cc:424: warn: TLB Message - Read the value from CR2: 0x143000
src/arch/x86/tlb.cc:505: warn: TLB Message - Resetting CR2 back to 0x0
.
src/arch/x86/faults.cc:177: warn: Looking up address for 0x7fff926e3000
src/arch/x86/faults.cc:184: warn: Adding to CR2 address 0x144000
src/arch/x86/tlb.cc:424: warn: TLB Message - Read the value from CR2: 0x144000
src/arch/x86/tlb.cc:505: warn: TLB Message - Resetting CR2 back to 0x0
.
src/arch/x86/faults.cc:177: warn: Looking up address for 0x7fff926e4008
src/arch/x86/faults.cc:184: warn: Adding to CR2 address 0x145000
src/arch/x86/tlb.cc:424: warn: TLB Message - Read the value from CR2: 0x145000
src/arch/x86/tlb.cc:505: warn: TLB Message - Resetting CR2 back to 0x0
.
src/arch/x86/faults.cc:177: warn: Looking up address for 0x7fff926e5010
src/arch/x86/faults.cc:184: warn: Adding to CR2 address 0x146000
src/arch/x86/tlb.cc:424: warn: TLB Message - Read the value from CR2: 0x146000
src/arch/x86/tlb.cc:505: warn: TLB Message - Resetting CR2 back to 0x0
.
src/sim/syscall_emul.cc:74: warn: ignoring syscall mprotect(...)
src/arch/x86/faults.cc:177: warn: Looking up address for 0x7fff92875540
src/arch/x86/faults.cc:184: warn: Adding to CR2 address 0x147000
src/arch/x86/tlb.cc:424: warn: TLB Message - Read the value from CR2: 0x147000
src/arch/x86/tlb.cc:505: warn: TLB Message - Resetting CR2 back to 0x0
.
src/arch/x86/faults.cc:177: warn: Looking up address for 0x7fff9242f7ae
src/arch/x86/faults.cc:184: warn: Adding to CR2 address 0x148000
src/arch/x86/tlb.cc:424: warn: TLB Message - Read the value from CR2: 0x148000
src/arch/x86/tlb.cc:505: warn: TLB Message - Resetting CR2 back to 0x0
.
src/sim/syscall_emul.cc:74: warn: ignoring syscall mprotect(...)
src/sim/syscall_emul.cc:74: warn: ignoring syscall mprotect(...)
src/arch/x86/faults.cc:177: warn: Looking up address for 0x7fff92599940
src/arch/x86/faults.cc:184: warn: Adding to CR2 address 0x149000
src/arch/x86/tlb.cc:424: warn: TLB Message - Read the value from CR2: 0x149000
src/arch/x86/tlb.cc:447: warn: CR2 value used to avoid miss
src/arch/x86/tlb.cc:505: warn: TLB Message - Resetting CR2 back to 0x0
.
src/arch/x86/faults.cc:177: warn: Looking up address for 0x7fff9245e3c0
src/arch/x86/faults.cc:184: warn: Adding to CR2 address 0x14a000
src/arch/x86/tlb.cc:424: warn: TLB Message - Read the value from CR2: 0x14a000
src/arch/x86/tlb.cc:447: warn: CR2 value used to avoid miss
src/arch/x86/tlb.cc:505: warn: TLB Message - Resetting CR2 back to 0x0
.
src/arch/x86/faults.cc:177: warn: Looking up address for 0x7fff9264be4e
src/arch/x86/faults.cc:184: warn: Adding to CR2 address 0x14b000
src/arch/x86/tlb.cc:424: warn: TLB Message - Read the value from CR2: 0x14b000
src/arch/x86/tlb.cc:505: warn: TLB Message - Resetting CR2 back to 0x0
.
src/arch/x86/faults.cc:177: warn: Looking up address for 0x7fff926454b8
src/arch/x86/faults.cc:184: warn: Adding to CR2 address 0x14c000
src/arch/x86/tlb.cc:424: warn: TLB Message - Read the value from CR2: 0x14c000
src/arch/x86/tlb.cc:505: warn: TLB Message - Resetting CR2 back to 0x0
.
src/arch/x86/faults.cc:177: warn: Looking up address for 0x7fff9253e0e0
src/arch/x86/faults.cc:184: warn: Adding to CR2 address 0x14d000
src/arch/x86/tlb.cc:424: warn: TLB Message - Read the value from CR2: 0x14d000
src/arch/x86/tlb.cc:447: warn: CR2 value used to avoid miss
src/arch/x86/tlb.cc:505: warn: TLB Message - Resetting CR2 back to 0x0
.
[...]
src/arch/x86/tlb.cc:447: warn: CR2 value used to avoid miss
src/arch/x86/tlb.cc:505: warn: TLB Message - Resetting CR2 back to 0x0
.
src/arch/x86/faults.cc:177: warn: Looking up address for 0x7fff924510b0
src/arch/x86/faults.cc:184: warn: Adding to CR2 address 0x183000
src/arch/x86/tlb.cc:424: warn: TLB Message - Read the value from CR2: 0x183000
src/arch/x86/tlb.cc:447: warn: CR2 value used to avoid miss
src/arch/x86/tlb.cc:505: warn: TLB Message - Resetting CR2 back to 0x0
.
src/arch/x86/faults.cc:177: warn: Looking up address for 0x7fff9254eb10
src/arch/x86/faults.cc:184: warn: Adding to CR2 address 0x184000
src/arch/x86/tlb.cc:424: warn: TLB Message - Read the value from CR2: 0x184000
src/arch/x86/tlb.cc:447: warn: CR2 value used to avoid miss
src/arch/x86/tlb.cc:505: warn: TLB Message - Resetting CR2 back to 0x0
.
src/arch/x86/faults.cc:177: warn: Looking up address for 0x7fff927fda61
src/arch/x86/faults.cc:184: warn: Adding to CR2 address 0x185000
src/arch/x86/tlb.cc:424: warn: TLB Message - Read the value from CR2: 0x185000
src/arch/x86/tlb.cc:505: warn: TLB Message - Resetting CR2 back to 0x0
.
src/arch/x86/faults.cc:177: warn: Looking up address for 0x7fff925e1c00
src/arch/x86/faults.cc:184: warn: Adding to CR2 address 0x186000
src/arch/x86/tlb.cc:424: warn: TLB Message - Read the value from CR2: 0x186000
src/arch/x86/tlb.cc:505: warn: TLB Message - Resetting CR2 back to 0x0
.
src/arch/x86/faults.cc:177: warn: Looking up address for 0x7fff925c8760
src/arch/x86/faults.cc:184: warn: Adding to CR2 address 0x187000
src/arch/x86/tlb.cc:424: warn: TLB Message - Read the value from CR2: 0x187000
src/arch/x86/tlb.cc:447: warn: CR2 value used to avoid miss
src/arch/x86/tlb.cc:505: warn: TLB Message - Resetting CR2 back to 0x0
.
src/arch/x86/faults.cc:177: warn: Looking up address for 0x7fff925c9a30
src/arch/x86/faults.cc:184: warn: Adding to CR2 address 0x188000
src/arch/x86/tlb.cc:424: warn: TLB Message - Read the value from CR2: 0x188000
src/arch/x86/tlb.cc:447: warn: CR2 value used to avoid miss
src/arch/x86/tlb.cc:505: warn: TLB Message - Resetting CR2 back to 0x0
.
src/arch/x86/faults.cc:177: warn: Looking up address for 0x7fff92822338
src/arch/x86/faults.cc:184: warn: Adding to CR2 address 0x189000
src/arch/x86/tlb.cc:424: warn: TLB Message - Read the value from CR2: 0x189000
src/arch/x86/tlb.cc:505: warn: TLB Message - Resetting CR2 back to 0x0
.
src/arch/x86/faults.cc:177: warn: Looking up address for 0x7fff9279dfa0
src/arch/x86/faults.cc:184: warn: Adding to CR2 address 0x18a000
src/arch/x86/tlb.cc:424: warn: TLB Message - Read the value from CR2: 0x18a000
src/arch/x86/tlb.cc:447: warn: CR2 value used to avoid miss
src/arch/x86/tlb.cc:505: warn: TLB Message - Resetting CR2 back to 0x0
.
src/arch/x86/faults.cc:177: warn: Looking up address for 0x7fff9271c0c0
src/arch/x86/faults.cc:184: warn: Adding to CR2 address 0x18b000
src/arch/x86/tlb.cc:424: warn: TLB Message - Read the value from CR2: 0x18b000
src/arch/x86/tlb.cc:447: warn: CR2 value used to avoid miss
src/arch/x86/tlb.cc:505: warn: TLB Message - Resetting CR2 back to 0x0
.
src/arch/x86/faults.cc:177: warn: Looking up address for 0x7fff9275ddc0
src/arch/x86/faults.cc:184: warn: Adding to CR2 address 0x18c000
src/arch/x86/tlb.cc:424: warn: TLB Message - Read the value from CR2: 0x18c000
src/arch/x86/tlb.cc:447: warn: CR2 value used to avoid miss
src/arch/x86/tlb.cc:505: warn: TLB Message - Resetting CR2 back to 0x0
.
src/arch/x86/faults.cc:177: warn: Looking up address for 0x7fff927286c0
src/arch/x86/faults.cc:184: warn: Adding to CR2 address 0x18d000
src/arch/x86/tlb.cc:424: warn: TLB Message - Read the value from CR2: 0x18d000
src/arch/x86/tlb.cc:447: warn: CR2 value used to avoid miss
src/arch/x86/tlb.cc:505: warn: TLB Message - Resetting CR2 back to 0x0
.
src/arch/x86/faults.cc:177: warn: Looking up address for 0x7fff92718510
src/arch/x86/faults.cc:184: warn: Adding to CR2 address 0x18e000
src/arch/x86/tlb.cc:424: warn: TLB Message - Read the value from CR2: 0x18e000
src/arch/x86/tlb.cc:447: warn: CR2 value used to avoid miss
src/arch/x86/tlb.cc:505: warn: TLB Message - Resetting CR2 back to 0x0
.
src/arch/x86/faults.cc:177: warn: Looking up address for 0x7fff92716d10
src/arch/x86/faults.cc:184: warn: Adding to CR2 address 0x18f000
src/arch/x86/tlb.cc:424: warn: TLB Message - Read the value from CR2: 0x18f000
src/arch/x86/tlb.cc:447: warn: CR2 value used to avoid miss
src/arch/x86/tlb.cc:505: warn: TLB Message - Resetting CR2 back to 0x0
.
src/arch/x86/faults.cc:177: warn: Looking up address for 0x7fff926ee380
src/arch/x86/faults.cc:184: warn: Adding to CR2 address 0x190000
src/arch/x86/tlb.cc:424: warn: TLB Message - Read the value from CR2: 0x190000
src/arch/x86/tlb.cc:447: warn: CR2 value used to avoid miss
src/arch/x86/tlb.cc:505: warn: TLB Message - Resetting CR2 back to 0x0
.
src/arch/x86/faults.cc:177: warn: Looking up address for 0x7fff92717a00
src/arch/x86/faults.cc:184: warn: Adding to CR2 address 0x191000
src/arch/x86/tlb.cc:424: warn: TLB Message - Read the value from CR2: 0x191000
src/arch/x86/tlb.cc:447: warn: CR2 value used to avoid miss
src/arch/x86/tlb.cc:505: warn: TLB Message - Resetting CR2 back to 0x0
.
src/arch/x86/faults.cc:177: warn: Looking up address for 0x7fff9279e570
src/arch/x86/faults.cc:184: warn: Adding to CR2 address 0x192000
src/arch/x86/tlb.cc:424: warn: TLB Message - Read the value from CR2: 0x192000
src/arch/x86/tlb.cc:447: warn: CR2 value used to avoid miss
src/arch/x86/tlb.cc:505: warn: TLB Message - Resetting CR2 back to 0x0
.
src/arch/x86/faults.cc:177: warn: Looking up address for 0x7fff927266e0
src/arch/x86/faults.cc:184: warn: Adding to CR2 address 0x193000
src/arch/x86/tlb.cc:424: warn: TLB Message - Read the value from CR2: 0x193000
src/arch/x86/tlb.cc:447: warn: CR2 value used to avoid miss
src/arch/x86/tlb.cc:505: warn: TLB Message - Resetting CR2 back to 0x0
.
src/arch/x86/faults.cc:177: warn: Looking up address for 0x7fff92769fc0
src/arch/x86/faults.cc:184: warn: Adding to CR2 address 0x194000
src/arch/x86/tlb.cc:424: warn: TLB Message - Read the value from CR2: 0x194000
src/arch/x86/tlb.cc:447: warn: CR2 value used to avoid miss
src/arch/x86/tlb.cc:505: warn: TLB Message - Resetting CR2 back to 0x0
.
src/arch/x86/faults.cc:177: warn: Looking up address for 0x7fff927782c0
src/arch/x86/faults.cc:184: warn: Adding to CR2 address 0x195000
src/arch/x86/tlb.cc:424: warn: TLB Message - Read the value from CR2: 0x195000
src/arch/x86/tlb.cc:447: warn: CR2 value used to avoid miss
src/arch/x86/tlb.cc:505: warn: TLB Message - Resetting CR2 back to 0x0
.
src/arch/x86/faults.cc:177: warn: Looking up address for 0x7fff92776620
src/arch/x86/faults.cc:184: warn: Adding to CR2 address 0x196000
src/arch/x86/tlb.cc:424: warn: TLB Message - Read the value from CR2: 0x196000
src/arch/x86/tlb.cc:447: warn: CR2 value used to avoid miss
src/arch/x86/tlb.cc:505: warn: TLB Message - Resetting CR2 back to 0x0
.
src/arch/x86/faults.cc:177: warn: Looking up address for 0x7fff92774350
src/arch/x86/faults.cc:184: warn: Adding to CR2 address 0x197000
src/arch/x86/tlb.cc:424: warn: TLB Message - Read the value from CR2: 0x197000
src/arch/x86/tlb.cc:447: warn: CR2 value used to avoid miss
src/arch/x86/tlb.cc:505: warn: TLB Message - Resetting CR2 back to 0x0
.
src/arch/x86/faults.cc:177: warn: Looking up address for 0x7fff9276a000
src/arch/x86/faults.cc:184: warn: Adding to CR2 address 0x198000
src/arch/x86/tlb.cc:424: warn: TLB Message - Read the value from CR2: 0x198000
src/arch/x86/tlb.cc:447: warn: CR2 value used to avoid miss
src/arch/x86/tlb.cc:505: warn: TLB Message - Resetting CR2 back to 0x0
.
src/arch/x86/faults.cc:177: warn: Looking up address for 0x7fff927a0760
src/arch/x86/faults.cc:184: warn: Adding to CR2 address 0x199000
src/arch/x86/tlb.cc:424: warn: TLB Message - Read the value from CR2: 0x199000
src/arch/x86/tlb.cc:447: warn: CR2 value used to avoid miss
src/arch/x86/tlb.cc:505: warn: TLB Message - Resetting CR2 back to 0x0
.
src/arch/x86/faults.cc:177: warn: Looking up address for 0x7fff9279c960
src/arch/x86/faults.cc:184: warn: Adding to CR2 address 0x19a000
src/arch/x86/tlb.cc:424: warn: TLB Message - Read the value from CR2: 0x19a000
src/arch/x86/tlb.cc:447: warn: CR2 value used to avoid miss
src/arch/x86/tlb.cc:505: warn: TLB Message - Resetting CR2 back to 0x0
.
src/arch/x86/faults.cc:177: warn: Looking up address for 0x7fff924661e0
src/arch/x86/faults.cc:184: warn: Adding to CR2 address 0x19b000
src/arch/x86/tlb.cc:424: warn: TLB Message - Read the value from CR2: 0x19b000
src/arch/x86/tlb.cc:447: warn: CR2 value used to avoid miss
src/arch/x86/tlb.cc:505: warn: TLB Message - Resetting CR2 back to 0x0
.
src/arch/x86/faults.cc:177: warn: Looking up address for 0x7fff92788e90
src/arch/x86/faults.cc:184: warn: Adding to CR2 address 0x19c000
src/arch/x86/tlb.cc:424: warn: TLB Message - Read the value from CR2: 0x19c000
src/arch/x86/tlb.cc:447: warn: CR2 value used to avoid miss
src/arch/x86/tlb.cc:505: warn: TLB Message - Resetting CR2 back to 0x0
.
src/arch/x86/faults.cc:177: warn: Looking up address for 0x7fff92787f70
src/arch/x86/faults.cc:184: warn: Adding to CR2 address 0x19d000
src/arch/x86/tlb.cc:424: warn: TLB Message - Read the value from CR2: 0x19d000
src/arch/x86/tlb.cc:447: warn: CR2 value used to avoid miss
src/arch/x86/tlb.cc:505: warn: TLB Message - Resetting CR2 back to 0x0
.
src/arch/x86/faults.cc:177: warn: Looking up address for 0x7fff9275eb30
src/arch/x86/faults.cc:184: warn: Adding to CR2 address 0x19e000
src/arch/x86/tlb.cc:424: warn: TLB Message - Read the value from CR2: 0x19e000
src/arch/x86/tlb.cc:447: warn: CR2 value used to avoid miss
src/arch/x86/tlb.cc:505: warn: TLB Message - Resetting CR2 back to 0x0
.
src/arch/x86/faults.cc:177: warn: Looking up address for 0x7fff924a3f20
src/arch/x86/faults.cc:184: warn: Adding to CR2 address 0x19f000
src/arch/x86/tlb.cc:424: warn: TLB Message - Read the value from CR2: 0x19f000
src/arch/x86/tlb.cc:447: warn: CR2 value used to avoid miss
src/arch/x86/tlb.cc:505: warn: TLB Message - Resetting CR2 back to 0x0
.
src/arch/x86/faults.cc:177: warn: Looking up address for 0x7fff924af600
src/arch/x86/faults.cc:184: warn: Adding to CR2 address 0x1a0000
src/arch/x86/tlb.cc:424: warn: TLB Message - Read the value from CR2: 0x1a0000
src/arch/x86/tlb.cc:447: warn: CR2 value used to avoid miss
src/arch/x86/tlb.cc:505: warn: TLB Message - Resetting CR2 back to 0x0
.
src/arch/x86/faults.cc:177: warn: Looking up address for 0x7fff924b0dc0
src/arch/x86/faults.cc:184: warn: Adding to CR2 address 0x1a1000
src/arch/x86/tlb.cc:424: warn: TLB Message - Read the value from CR2: 0x1a1000
src/arch/x86/tlb.cc:447: warn: CR2 value used to avoid miss
src/arch/x86/tlb.cc:505: warn: TLB Message - Resetting CR2 back to 0x0
.
src/arch/x86/faults.cc:177: warn: Looking up address for 0x7fff924b1c90
src/arch/x86/faults.cc:184: warn: Adding to CR2 address 0x1a2000
src/arch/x86/tlb.cc:424: warn: TLB Message - Read the value from CR2: 0x1a2000
src/arch/x86/tlb.cc:447: warn: CR2 value used to avoid miss
src/arch/x86/tlb.cc:505: warn: TLB Message - Resetting CR2 back to 0x0
.
src/arch/x86/faults.cc:177: warn: Looking up address for 0x7fff924a2b10
src/arch/x86/faults.cc:184: warn: Adding to CR2 address 0x1a3000
src/arch/x86/tlb.cc:424: warn: TLB Message - Read the value from CR2: 0x1a3000
src/arch/x86/tlb.cc:447: warn: CR2 value used to avoid miss
src/arch/x86/tlb.cc:505: warn: TLB Message - Resetting CR2 back to 0x0
.
src/arch/x86/faults.cc:177: warn: Looking up address for 0x7fff924aeeb0
src/arch/x86/faults.cc:184: warn: Adding to CR2 address 0x1a4000
src/arch/x86/tlb.cc:424: warn: TLB Message - Read the value from CR2: 0x1a4000
src/arch/x86/tlb.cc:447: warn: CR2 value used to avoid miss
src/arch/x86/tlb.cc:505: warn: TLB Message - Resetting CR2 back to 0x0
.
src/arch/x86/faults.cc:177: warn: Looking up address for 0x7fff92537ae0
src/arch/x86/faults.cc:184: warn: Adding to CR2 address 0x1a5000
src/arch/x86/tlb.cc:424: warn: TLB Message - Read the value from CR2: 0x1a5000
src/arch/x86/tlb.cc:447: warn: CR2 value used to avoid miss
src/arch/x86/tlb.cc:505: warn: TLB Message - Resetting CR2 back to 0x0
.
src/arch/x86/faults.cc:177: warn: Looking up address for 0x18eb8
src/arch/x86/faults.cc:184: warn: Adding to CR2 address 0x1a7000
src/arch/x86/tlb.cc:424: warn: TLB Message - Read the value from CR2: 0x1a7000
src/arch/x86/tlb.cc:505: warn: TLB Message - Resetting CR2 back to 0x0
.
src/arch/x86/faults.cc:177: warn: Looking up address for 0x7fff924a4000
src/arch/x86/faults.cc:184: warn: Adding to CR2 address 0x1a8000
src/arch/x86/tlb.cc:424: warn: TLB Message - Read the value from CR2: 0x1a8000
src/arch/x86/tlb.cc:505: warn: TLB Message - Resetting CR2 back to 0x0
.
src/arch/x86/faults.cc:177: warn: Looking up address for 0x7fff92789310
src/arch/x86/faults.cc:184: warn: Adding to CR2 address 0x1a9000
src/arch/x86/tlb.cc:424: warn: TLB Message - Read the value from CR2: 0x1a9000
src/arch/x86/tlb.cc:447: warn: CR2 value used to avoid miss
src/arch/x86/tlb.cc:505: warn: TLB Message - Resetting CR2 back to 0x0
.
src/arch/x86/faults.cc:177: warn: Looking up address for 0x7fff927fa380
src/arch/x86/faults.cc:184: warn: Adding to CR2 address 0x1aa000
src/arch/x86/tlb.cc:424: warn: TLB Message - Read the value from CR2: 0x1aa000
src/arch/x86/tlb.cc:505: warn: TLB Message - Resetting CR2 back to 0x0
.
src/arch/x86/faults.cc:177: warn: Looking up address for 0x7fff92695bce
src/arch/x86/faults.cc:184: warn: Adding to CR2 address 0x1ab000
src/arch/x86/tlb.cc:424: warn: TLB Message - Read the value from CR2: 0x1ab000
src/arch/x86/tlb.cc:505: warn: TLB Message - Resetting CR2 back to 0x0
.
src/arch/x86/faults.cc:177: warn: Looking up address for 0x7fff9277acf0
src/arch/x86/faults.cc:184: warn: Adding to CR2 address 0x1ac000
src/arch/x86/tlb.cc:424: warn: TLB Message - Read the value from CR2: 0x1ac000
src/arch/x86/tlb.cc:447: warn: CR2 value used to avoid miss
src/arch/x86/tlb.cc:505: warn: TLB Message - Resetting CR2 back to 0x0
.
src/arch/x86/faults.cc:177: warn: Looking up address for 0x7fff92777240
src/arch/x86/faults.cc:184: warn: Adding to CR2 address 0x1ad000
src/arch/x86/tlb.cc:424: warn: TLB Message - Read the value from CR2: 0x1ad000
src/arch/x86/tlb.cc:447: warn: CR2 value used to avoid miss
src/arch/x86/tlb.cc:505: warn: TLB Message - Resetting CR2 back to 0x0
.
src/arch/x86/faults.cc:177: warn: Looking up address for 0x7fff9259ea00
src/arch/x86/faults.cc:184: warn: Adding to CR2 address 0x1ae000
src/arch/x86/tlb.cc:424: warn: TLB Message - Read the value from CR2: 0x1ae000
src/arch/x86/tlb.cc:447: warn: CR2 value used to avoid miss
src/arch/x86/tlb.cc:505: warn: TLB Message - Resetting CR2 back to 0x0
.
src/arch/x86/faults.cc:177: warn: Looking up address for 0x7fff92606f54
src/arch/x86/faults.cc:184: warn: Adding to CR2 address 0x1af000
src/arch/x86/tlb.cc:424: warn: TLB Message - Read the value from CR2: 0x1af000
src/arch/x86/tlb.cc:505: warn: TLB Message - Resetting CR2 back to 0x0
.
src/arch/x86/faults.cc:177: warn: Looking up address for 0x7fff925a0680
src/arch/x86/faults.cc:184: warn: Adding to CR2 address 0x1b0000
src/arch/x86/tlb.cc:424: warn: TLB Message - Read the value from CR2: 0x1b0000
src/arch/x86/tlb.cc:447: warn: CR2 value used to avoid miss
src/arch/x86/tlb.cc:505: warn: TLB Message - Resetting CR2 back to 0x0
.
src/arch/x86/faults.cc:177: warn: Looking up address for 0x7fff92538680
src/arch/x86/faults.cc:184: warn: Adding to CR2 address 0x1b1000
src/arch/x86/tlb.cc:424: warn: TLB Message - Read the value from CR2: 0x1b1000
src/arch/x86/tlb.cc:447: warn: CR2 value used to avoid miss
src/arch/x86/tlb.cc:505: warn: TLB Message - Resetting CR2 back to 0x0
.
Hello World: 8
src/arch/x86/faults.cc:177: warn: Looking up address for 0x7fff926f9310
src/arch/x86/faults.cc:184: warn: Adding to CR2 address 0x1b2000
src/arch/x86/tlb.cc:424: warn: TLB Message - Read the value from CR2: 0x1b2000
src/arch/x86/tlb.cc:447: warn: CR2 value used to avoid miss
src/arch/x86/tlb.cc:505: warn: TLB Message - Resetting CR2 back to 0x0
.
src/arch/x86/faults.cc:177: warn: Looking up address for 0x7fff9278a9a0
src/arch/x86/faults.cc:184: warn: Adding to CR2 address 0x1b3000
src/arch/x86/tlb.cc:424: warn: TLB Message - Read the value from CR2: 0x1b3000
src/arch/x86/tlb.cc:447: warn: CR2 value used to avoid miss
src/arch/x86/tlb.cc:505: warn: TLB Message - Resetting CR2 back to 0x0
.
src/arch/x86/faults.cc:177: warn: Looking up address for 0x7fff924bc008
src/arch/x86/faults.cc:184: warn: Adding to CR2 address 0x1b4000
src/arch/x86/tlb.cc:424: warn: TLB Message - Read the value from CR2: 0x1b4000
src/arch/x86/tlb.cc:447: warn: CR2 value used to avoid miss
src/arch/x86/tlb.cc:505: warn: TLB Message - Resetting CR2 back to 0x0
.
src/arch/x86/faults.cc:177: warn: Looking up address for 0x7fff9250edd0
src/arch/x86/faults.cc:184: warn: Adding to CR2 address 0x1b5000
src/arch/x86/tlb.cc:424: warn: TLB Message - Read the value from CR2: 0x1b5000
src/arch/x86/tlb.cc:447: warn: CR2 value used to avoid miss
src/arch/x86/tlb.cc:505: warn: TLB Message - Resetting CR2 back to 0x0
.
src/arch/x86/faults.cc:177: warn: Looking up address for 0x7fff927d9820
src/arch/x86/faults.cc:184: warn: Adding to CR2 address 0x1b6000
src/arch/x86/tlb.cc:424: warn: TLB Message - Read the value from CR2: 0x1b6000
src/arch/x86/tlb.cc:447: warn: CR2 value used to avoid miss
src/arch/x86/tlb.cc:505: warn: TLB Message - Resetting CR2 back to 0x0
.
src/arch/x86/faults.cc:177: warn: Looking up address for 0x7fff9272e8b0
src/arch/x86/faults.cc:184: warn: Adding to CR2 address 0x1b7000
src/arch/x86/tlb.cc:424: warn: TLB Message - Read the value from CR2: 0x1b7000
src/arch/x86/tlb.cc:447: warn: CR2 value used to avoid miss
src/arch/x86/tlb.cc:505: warn: TLB Message - Resetting CR2 back to 0x0
.
src/arch/x86/faults.cc:177: warn: Looking up address for 0x7fff92727f10
src/arch/x86/faults.cc:184: warn: Adding to CR2 address 0x1b8000
src/arch/x86/tlb.cc:424: warn: TLB Message - Read the value from CR2: 0x1b8000
src/arch/x86/tlb.cc:447: warn: CR2 value used to avoid miss
src/arch/x86/tlb.cc:505: warn: TLB Message - Resetting CR2 back to 0x0
.
src/arch/x86/faults.cc:177: warn: Looking up address for 0x7fff927f6fc0
src/arch/x86/faults.cc:184: warn: Adding to CR2 address 0x1b9000
src/arch/x86/tlb.cc:424: warn: TLB Message - Read the value from CR2: 0x1b9000
src/arch/x86/tlb.cc:447: warn: CR2 value used to avoid miss
src/arch/x86/tlb.cc:505: warn: TLB Message - Resetting CR2 back to 0x0
.
src/arch/x86/faults.cc:177: warn: Looking up address for 0x7fff923c68c8
src/arch/x86/faults.cc:184: warn: Adding to CR2 address 0x1ba000
src/arch/x86/tlb.cc:424: warn: TLB Message - Read the value from CR2: 0x1ba000
src/arch/x86/tlb.cc:447: warn: CR2 value used to avoid miss
src/arch/x86/tlb.cc:505: warn: TLB Message - Resetting CR2 back to 0x0
.
src/arch/x86/faults.cc:177: warn: Looking up address for 0x7fff92336808
src/arch/x86/faults.cc:184: warn: Adding to CR2 address 0x1bb000
src/arch/x86/tlb.cc:424: warn: TLB Message - Read the value from CR2: 0x1bb000
src/arch/x86/tlb.cc:447: warn: CR2 value used to avoid miss
src/arch/x86/tlb.cc:505: warn: TLB Message - Resetting CR2 back to 0x0
.
src/arch/x86/faults.cc:177: warn: Looking up address for 0x7fff924b2b50
src/arch/x86/faults.cc:184: warn: Adding to CR2 address 0x1bc000
src/arch/x86/tlb.cc:424: warn: TLB Message - Read the value from CR2: 0x1bc000
src/arch/x86/tlb.cc:447: warn: CR2 value used to avoid miss
src/arch/x86/tlb.cc:505: warn: TLB Message - Resetting CR2 back to 0x0
.
src/arch/x86/faults.cc:177: warn: Looking up address for 0x7fff924b51c0
src/arch/x86/faults.cc:184: warn: Adding to CR2 address 0x1bd000
src/arch/x86/tlb.cc:424: warn: TLB Message - Read the value from CR2: 0x1bd000
src/arch/x86/tlb.cc:447: warn: CR2 value used to avoid miss
src/arch/x86/tlb.cc:505: warn: TLB Message - Resetting CR2 back to 0x0
.
Exiting @ tick 180000438000 because exiting with last active thread context
